data_C324H180N36O12_2018-02-15_10:35:38
#******************************************
#
# CIF file created by Zeo++
# Zeo++ is an open source package to
# analyze microporous materials
#
#*******************************************

_cell_length_a		25.6149   
_cell_length_b		29.6129   
_cell_length_c		30.0153   
_cell_angle_alpha		91.6756   
_cell_angle_beta		89.0315   
_cell_angle_gamma		90.0361   

_symmetry_space_group_name_H-M		'P1'
_symmetry_Int_Tables_number		1
_symmetry_cell_setting		Triclinic

loop_
_symmetry_equiv_pos_as_xyz
'+x,+y,+z'

loop_
_atom_site_label
_atom_site_type_symbol
_atom_site_fract_x
_atom_site_fract_y
_atom_site_fract_z
1	C	0.048285	0.99938	0.994578
2	C	0.076862	0.459728	0.003593
3	C	0.131747	0.458616	0.009279
4	C	0.157798	0.501108	0.01076
5	C	0.132507	0.041708	0.998845
6	C	0.078596	0.03895	0.989254
7	H	0.056928	0.430267	0.005629
8	O	0.197622	0.50522	0.040582
9	C	0.991347	6.1e-05	0.994525
10	C	0.961261	0.460177	0.989054
11	C	0.906958	0.457943	0.998565
12	C	0.88123	0.999271	0.010316
13	C	0.907285	0.04171	0.009213
14	C	0.962413	0.040234	0.003652
15	O	0.840625	0.996976	0.040585
16	H	0.982296	0.069783	0.005891
17	H	0.231296	0.004604	0.024752
18	H	0.80736	0.496524	0.025071
19	H	0.060928	0.066951	0.310882
20	H	0.979428	0.431501	0.310683
21	C	0.243758	0.290633	0.007063
22	N	0.29649	0.289461	0.001065
23	C	0.32394	0.250392	0.995668
24	N	0.296137	0.211271	0.995315
25	C	0.243313	0.210068	0.001031
26	N	0.21835	0.250331	0.007408
27	C	0.379518	0.250541	0.992148
28	C	0.408743	0.289401	0.004524
29	C	0.463668	0.288985	0.003314
30	C	0.491891	0.249895	0.989151
31	C	0.462615	0.211268	0.976104
32	C	0.407656	0.211485	0.9778
33	C	0.216409	0.332062	0.010726
34	C	0.241106	0.372983	0.999582
35	C	0.213009	0.41366	0.999225
36	C	0.159602	0.416867	0.01255
37	C	0.135733	0.375581	0.024881
38	C	0.163002	0.334258	0.023368
39	C	0.215445	0.168802	0.999688
40	C	0.161156	0.166995	0.009173
41	C	0.13388	0.125708	0.008359
42	C	0.159316	0.084016	0.998065
43	C	0.213138	0.086562	0.986544
44	C	0.240703	0.127598	0.987888
45	H	0.231766	0.440294	0.985304
46	H	0.278986	0.373245	0.988148
47	H	0.09796	0.374707	0.036174
48	H	0.143361	0.305757	0.032438
49	H	0.140838	0.195693	0.018099
50	H	0.09543	0.126506	0.018067
51	H	0.27942	0.126949	0.978884
52	H	0.232753	0.058667	0.974493
53	H	0.38843	0.182596	0.9682
54	H	0.481074	0.182379	0.9649
55	H	0.48286	0.317429	0.014224
56	H	0.390414	0.318256	0.01602
57	C	0.795298	0.209535	0.006968
58	N	0.742794	0.210357	0.001036
59	C	0.715562	0.249106	0.995618
60	N	0.743387	0.2882	0.995188
61	C	0.795993	0.28974	0.000843
62	N	0.820702	0.249854	0.007231
63	C	0.66012	0.248755	0.992131
64	C	0.630399	0.210652	0.004568
65	C	0.575522	0.210988	0.003342
66	C	0.547861	0.249232	0.989161
67	C	0.577654	0.287074	0.976084
68	C	0.632546	0.286954	0.977767
69	C	0.822494	0.168326	0.010713
70	C	0.798191	0.126716	0.999759
71	C	0.826327	0.086021	0.999402
72	C	0.879273	0.083644	0.012562
73	C	0.902657	0.125686	0.024795
74	C	0.875425	0.166906	0.023278
75	C	0.823924	0.330922	0.999442
76	C	0.877871	0.333264	0.008791
77	C	0.905207	0.374488	0.007923
78	C	0.880154	0.415599	0.997765
79	C	0.826744	0.412402	0.986371
80	C	0.799101	0.371457	0.987768
81	H	0.808101	0.05857	0.985478
82	H	0.760798	0.125769	0.988248
83	H	0.940028	0.127278	0.035973
84	H	0.894746	0.195968	0.032208
85	H	0.897862	0.305078	0.017632
86	H	0.94329	0.37424	0.017579
87	H	0.760698	0.371607	0.978897
88	H	0.80753	0.439647	0.97453
89	H	0.652152	0.315261	0.968133
90	H	0.559638	0.315291	0.964856
91	H	0.555899	0.183194	0.014259
92	H	0.648278	0.182467	0.016031
93	C	0.048285	0.99938	0.327912
94	C	0.076862	0.459726	0.336927
95	C	0.131747	0.458615	0.342614
96	C	0.157798	0.501106	0.344095
97	C	0.132507	0.041708	0.332176
98	C	0.078597	0.03895	0.322587
99	H	0.056929	0.430269	0.338964
100	O	0.197622	0.505222	0.373916
101	C	0.991348	6.1e-05	0.327856
102	C	0.961262	0.460177	0.322387
103	C	0.906959	0.457943	0.331897
104	C	0.881229	0.999269	0.343651
105	C	0.907284	0.04171	0.342548
106	C	0.962412	0.040234	0.336987
107	O	0.840624	0.996978	0.37392
108	H	0.982296	0.069783	0.339224
109	H	0.231296	0.004604	0.358085
110	H	0.80736	0.496526	0.358405
111	H	0.060928	0.066951	0.644216
112	H	0.979427	0.431499	0.644016
113	C	0.243758	0.290632	0.340398
114	N	0.29649	0.289461	0.334401
115	C	0.32394	0.250392	0.329002
116	N	0.296137	0.211271	0.328648
117	C	0.243313	0.210068	0.334364
118	N	0.21835	0.250331	0.340741
119	C	0.379517	0.250542	0.325481
120	C	0.408742	0.289401	0.337858
121	C	0.463668	0.288985	0.336647
122	C	0.491892	0.249896	0.322482
123	C	0.462612	0.211268	0.309437
124	C	0.407657	0.211486	0.311131
125	C	0.216409	0.332063	0.344061
126	C	0.241105	0.372983	0.332915
127	C	0.213009	0.413661	0.332558
128	C	0.159602	0.416868	0.345885
129	C	0.135733	0.375583	0.358215
130	C	0.163002	0.334258	0.356702
131	C	0.215445	0.168802	0.333022
132	C	0.161155	0.166995	0.342508
133	C	0.13388	0.125708	0.341694
134	C	0.159316	0.084017	0.331399
135	C	0.213138	0.086562	0.319878
136	C	0.240703	0.127598	0.321221
137	H	0.231766	0.440294	0.318636
138	H	0.278986	0.373245	0.321481
139	H	0.09796	0.374708	0.369506
140	H	0.143361	0.305757	0.365773
141	H	0.140837	0.195693	0.351432
142	H	0.09543	0.126506	0.351402
143	H	0.27942	0.126949	0.312216
144	H	0.232754	0.058667	0.307824
145	H	0.388431	0.182596	0.301532
146	H	0.481076	0.182379	0.29823
147	H	0.482859	0.317429	0.347558
148	H	0.390417	0.318256	0.349355
149	C	0.795298	0.209535	0.340301
150	N	0.742794	0.210357	0.334371
151	C	0.715559	0.249106	0.328952
152	N	0.743388	0.2882	0.328522
153	C	0.795993	0.28974	0.334177
154	N	0.820702	0.249854	0.340564
155	C	0.660121	0.248755	0.325465
156	C	0.630399	0.210652	0.337901
157	C	0.575522	0.210988	0.336674
158	C	0.547862	0.249232	0.322493
159	C	0.577655	0.287074	0.309415
160	C	0.632543	0.286954	0.3111
161	C	0.822494	0.168326	0.344048
162	C	0.798191	0.126716	0.333093
163	C	0.826324	0.086021	0.332736
164	C	0.879273	0.083644	0.345895
165	C	0.902657	0.125686	0.358129
166	C	0.875428	0.166906	0.356612
167	C	0.823921	0.330922	0.332773
168	C	0.87787	0.333264	0.342124
169	C	0.905206	0.374486	0.341258
170	C	0.880155	0.415599	0.331096
171	C	0.826746	0.412402	0.319703
172	C	0.799103	0.371457	0.321098
173	H	0.808102	0.05857	0.318809
174	H	0.760799	0.125769	0.321581
175	H	0.940028	0.127278	0.369306
176	H	0.894745	0.195968	0.365543
177	H	0.897862	0.305078	0.350965
178	H	0.943289	0.374239	0.350912
179	H	0.760695	0.371607	0.312231
180	H	0.807531	0.439647	0.307863
181	H	0.652153	0.315261	0.301466
182	H	0.559639	0.315291	0.298189
183	H	0.555898	0.183194	0.347595
184	H	0.648278	0.182467	0.349365
185	C	0.048286	0.999378	0.661244
186	C	0.076862	0.459728	0.670261
187	C	0.131747	0.458616	0.675948
188	C	0.157798	0.501108	0.677428
189	C	0.132507	0.041708	0.665511
190	C	0.078597	0.03895	0.65592
191	H	0.056928	0.430267	0.672298
192	O	0.197622	0.50522	0.70725
193	C	0.991347	6.1e-05	0.661191
194	C	0.961262	0.460175	0.65572
195	C	0.906959	0.457941	0.665231
196	C	0.881229	0.999271	0.676985
197	C	0.907284	0.04171	0.675882
198	C	0.962412	0.040234	0.670321
199	O	0.840624	0.996976	0.707254
200	H	0.982295	0.069784	0.672558
201	H	0.231296	0.004604	0.691419
202	H	0.807359	0.496524	0.691739
203	H	0.060928	0.066951	0.97755
204	H	0.979426	0.431501	0.97735
205	C	0.243758	0.290633	0.673732
206	N	0.29649	0.289461	0.667735
207	C	0.32394	0.250391	0.662334
208	N	0.296137	0.211271	0.661981
209	C	0.243312	0.210068	0.667698
210	N	0.21835	0.250331	0.674075
211	C	0.379515	0.250541	0.658814
212	C	0.408742	0.289401	0.671191
213	C	0.463667	0.288985	0.669981
214	C	0.491891	0.249895	0.655817
215	C	0.462611	0.211268	0.64277
216	C	0.407657	0.211486	0.644466
217	C	0.216409	0.332063	0.677395
218	C	0.241106	0.372981	0.666248
219	C	0.213009	0.413659	0.665891
220	C	0.159602	0.416867	0.679219
221	C	0.135733	0.375581	0.691549
222	C	0.163002	0.334258	0.690036
223	C	0.215445	0.168802	0.666354
224	C	0.161155	0.166995	0.675842
225	C	0.13388	0.125708	0.675028
226	C	0.159316	0.084017	0.664731
227	C	0.213138	0.086562	0.65321
228	C	0.240703	0.127598	0.654554
229	H	0.231766	0.440292	0.65197
230	H	0.278986	0.373247	0.654814
231	H	0.09796	0.374707	0.70284
232	H	0.143361	0.305757	0.699106
233	H	0.140838	0.195693	0.684766
234	H	0.09543	0.126506	0.684736
235	H	0.27942	0.126949	0.64555
236	H	0.232754	0.058667	0.64116
237	H	0.388431	0.182596	0.634866
238	H	0.481075	0.182379	0.631566
239	H	0.482859	0.317429	0.680892
240	H	0.390417	0.318256	0.682689
241	C	0.795301	0.209535	0.673635
242	N	0.742793	0.210357	0.667705
243	C	0.715562	0.249106	0.662284
244	N	0.743388	0.2882	0.661854
245	C	0.795996	0.28974	0.667511
246	N	0.820701	0.249854	0.673898
247	C	0.66012	0.248755	0.658801
248	C	0.630398	0.210652	0.671235
249	C	0.575521	0.210988	0.670008
250	C	0.547862	0.249232	0.655827
251	C	0.577655	0.287074	0.64275
252	C	0.632546	0.286954	0.644433
253	C	0.822493	0.168325	0.677382
254	C	0.79819	0.126717	0.666428
255	C	0.826323	0.086021	0.666071
256	C	0.879272	0.083644	0.679229
257	C	0.90266	0.125686	0.691463
258	C	0.875427	0.166906	0.689946
259	C	0.823924	0.330922	0.666108
260	C	0.877873	0.333264	0.675458
261	C	0.905205	0.374488	0.674592
262	C	0.880155	0.415598	0.664431
263	C	0.826745	0.4124	0.653037
264	C	0.799102	0.371456	0.654434
265	H	0.808102	0.05857	0.652144
266	H	0.760799	0.125769	0.654914
267	H	0.940027	0.127278	0.70264
268	H	0.894745	0.195968	0.698876
269	H	0.897861	0.305078	0.684299
270	H	0.943289	0.37424	0.684246
271	H	0.760695	0.371605	0.645563
272	H	0.80753	0.439649	0.641196
273	H	0.652153	0.315261	0.634799
274	H	0.559639	0.315291	0.631522
275	H	0.555898	0.183194	0.680925
276	H	0.648277	0.182466	0.682699
277	C	0.048286	0.499381	0.994578
278	C	0.076862	0.959727	0.003593
279	C	0.131747	0.958616	0.009279
280	C	0.157798	0.001106	0.01076
281	C	0.132507	0.541708	0.998845
282	C	0.078596	0.538949	0.989254
283	H	0.056928	0.93027	0.005629
284	O	0.197622	0.00522	0.040582
285	C	0.991348	0.500061	0.994525
286	C	0.961262	0.960176	0.989054
287	C	0.906959	0.957942	0.998565
288	C	0.881229	0.499268	0.010316
289	C	0.907282	0.54171	0.009213
290	C	0.96241	0.540235	0.003652
291	O	0.840624	0.496977	0.040585
292	H	0.982297	0.569785	0.005891
293	H	0.231296	0.504606	0.024752
294	H	0.807361	0.996527	0.025071
295	H	0.060928	0.566952	0.310882
296	H	0.979429	0.9315	0.310683
297	C	0.243758	0.790633	0.007063
298	N	0.29649	0.789463	0.001065
299	C	0.32394	0.750392	0.995668
300	N	0.296137	0.71127	0.995315
301	C	0.243313	0.71007	0.001031
302	N	0.21835	0.750333	0.007408
303	C	0.379515	0.750541	0.992148
304	C	0.408744	0.789403	0.004524
305	C	0.463669	0.788985	0.003314
306	C	0.491888	0.749895	0.989151
307	C	0.462612	0.711268	0.976104
308	C	0.407657	0.711487	0.9778
309	C	0.216409	0.832065	0.010726
310	C	0.241105	0.872982	0.999582
311	C	0.213009	0.91366	0.999225
312	C	0.159602	0.916869	0.01255
313	C	0.135733	0.875584	0.024881
314	C	0.163002	0.83426	0.023368
315	C	0.215445	0.668803	0.999688
316	C	0.161156	0.666996	0.009173
317	C	0.13388	0.625709	0.008359
318	C	0.159316	0.584018	0.998065
319	C	0.213138	0.586564	0.986544
320	C	0.240703	0.6276	0.987888
321	H	0.231766	0.940293	0.985304
322	H	0.278986	0.873247	0.988148
323	H	0.09796	0.874706	0.036174
324	H	0.143361	0.805757	0.032438
325	H	0.140838	0.695694	0.018099
326	H	0.09543	0.626507	0.018067
327	H	0.27942	0.626948	0.978884
328	H	0.232753	0.558669	0.974493
329	H	0.388431	0.682597	0.9682
330	H	0.481076	0.682381	0.9649
331	H	0.482861	0.817432	0.014224
332	H	0.390416	0.818258	0.01602
333	C	0.795299	0.709537	0.006968
334	N	0.742792	0.710357	0.001036
335	C	0.715559	0.749107	0.995618
336	N	0.743388	0.788203	0.995188
337	C	0.795994	0.78974	0.000843
338	N	0.820699	0.749855	0.007231
339	C	0.660121	0.748754	0.992131
340	C	0.630401	0.710651	0.004568
341	C	0.57552	0.71099	0.003342
342	C	0.547863	0.749233	0.989161
343	C	0.577655	0.787076	0.976084
344	C	0.632543	0.786954	0.977767
345	C	0.822496	0.668325	0.010713
346	C	0.798189	0.626717	0.999759
347	C	0.826324	0.58602	0.999402
348	C	0.879274	0.583646	0.012562
349	C	0.902658	0.625686	0.024795
350	C	0.875426	0.666907	0.023278
351	C	0.823921	0.830922	0.999442
352	C	0.877872	0.833264	0.008791
353	C	0.905204	0.874487	0.007923
354	C	0.880155	0.915599	0.997765
355	C	0.826742	0.912401	0.986371
356	C	0.799103	0.871457	0.987768
357	H	0.808102	0.558572	0.985478
358	H	0.7608	0.62577	0.988248
359	H	0.94003	0.62728	0.035973
360	H	0.894747	0.69597	0.032208
361	H	0.897863	0.805079	0.017632
362	H	0.943291	0.874239	0.017579
363	H	0.760695	0.871606	0.978897
364	H	0.807531	0.939649	0.97453
365	H	0.652153	0.81526	0.968133
366	H	0.559639	0.815292	0.964856
367	H	0.5559	0.683194	0.014259
368	H	0.648279	0.682466	0.016031
369	C	0.048285	0.499381	0.327912
370	C	0.076862	0.959729	0.336927
371	C	0.131747	0.958617	0.342614
372	C	0.157798	0.001106	0.344095
373	C	0.132507	0.541709	0.332176
374	C	0.078597	0.538949	0.322587
375	H	0.056928	0.930268	0.338964
376	O	0.197622	0.00522	0.373916
377	C	0.991345	0.500061	0.327856
378	C	0.961263	0.960176	0.322387
379	C	0.90696	0.957942	0.331897
380	C	0.881228	0.49927	0.343651
381	C	0.907282	0.541712	0.342548
382	C	0.962409	0.540234	0.336987
383	O	0.840623	0.496975	0.37392
384	H	0.982297	0.569784	0.339224
385	H	0.231296	0.504604	0.358085
386	H	0.807361	0.996525	0.358405
387	H	0.060928	0.566953	0.644216
388	H	0.979428	0.931502	0.644016
389	C	0.243758	0.790635	0.340398
390	N	0.29649	0.789461	0.334401
391	C	0.32394	0.750392	0.329002
392	N	0.296137	0.71127	0.328648
393	C	0.243312	0.710069	0.334364
394	N	0.21835	0.750331	0.340741
395	C	0.379517	0.750541	0.325481
396	C	0.408743	0.789401	0.337858
397	C	0.463669	0.788987	0.336647
398	C	0.491889	0.749895	0.322482
399	C	0.462613	0.711268	0.309437
400	C	0.407658	0.711487	0.311131
401	C	0.216409	0.832063	0.344061
402	C	0.241105	0.872982	0.332915
403	C	0.213009	0.91366	0.332558
404	C	0.159602	0.916868	0.345885
405	C	0.135733	0.875582	0.358215
406	C	0.163002	0.834258	0.356702
407	C	0.215445	0.668803	0.333022
408	C	0.161155	0.666994	0.342508
409	C	0.13388	0.625708	0.341694
410	C	0.159316	0.584018	0.331399
411	C	0.213138	0.586564	0.319878
412	C	0.240703	0.6276	0.321221
413	H	0.231766	0.940293	0.318636
414	H	0.278986	0.873248	0.321481
415	H	0.09796	0.874708	0.369506
416	H	0.143361	0.805759	0.365773
417	H	0.140838	0.695692	0.351432
418	H	0.09543	0.626505	0.351402
419	H	0.27942	0.626948	0.312216
420	H	0.232754	0.558669	0.307824
421	H	0.388433	0.682597	0.301532
422	H	0.481077	0.682381	0.29823
423	H	0.482861	0.81743	0.347558
424	H	0.390415	0.818256	0.349355
425	C	0.795299	0.709535	0.340301
426	N	0.742795	0.710359	0.334371
427	C	0.71556	0.749107	0.328952
428	N	0.743385	0.788203	0.328522
429	C	0.795994	0.789741	0.334177
430	N	0.820703	0.749853	0.340564
431	C	0.660118	0.748754	0.325465
432	C	0.6304	0.710653	0.337901
433	C	0.575523	0.710988	0.336674
434	C	0.547864	0.749233	0.322493
435	C	0.577656	0.787076	0.309415
436	C	0.632544	0.786954	0.3111
437	C	0.822495	0.668326	0.344048
438	C	0.798188	0.626716	0.333093
439	C	0.826325	0.58602	0.332736
440	C	0.879274	0.583644	0.345895
441	C	0.902658	0.625688	0.358129
442	C	0.875425	0.666905	0.356612
443	C	0.823922	0.830922	0.332773
444	C	0.877871	0.833265	0.342124
445	C	0.905207	0.874489	0.341258
446	C	0.880152	0.915599	0.331096
447	C	0.826743	0.912401	0.319703
448	C	0.799104	0.871457	0.321098
449	H	0.808103	0.558572	0.318809
450	H	0.760797	0.62577	0.321581
451	H	0.940029	0.627279	0.369306
452	H	0.894746	0.695968	0.365543
453	H	0.897863	0.80508	0.350965
454	H	0.94329	0.874241	0.350912
455	H	0.760696	0.871606	0.312231
456	H	0.807532	0.93965	0.307863
457	H	0.652151	0.815261	0.301466
458	H	0.559637	0.815292	0.29819
459	H	0.555899	0.683195	0.347595
460	H	0.648279	0.682468	0.349365
461	C	0.048286	0.499379	0.661244
462	C	0.076862	0.959727	0.670261
463	C	0.131747	0.958616	0.675948
464	C	0.157798	0.001106	0.677428
465	C	0.132507	0.54171	0.665511
466	C	0.078597	0.538951	0.65592
467	H	0.056928	0.93027	0.672298
468	O	0.197622	0.00522	0.70725
469	C	0.991348	0.500063	0.661191
470	C	0.961263	0.960178	0.65572
471	C	0.90696	0.957943	0.665231
472	C	0.881228	0.499271	0.676985
473	C	0.907285	0.54171	0.675882
474	C	0.962413	0.540235	0.670321
475	O	0.840623	0.496977	0.707254
476	H	0.982296	0.569785	0.672558
477	H	0.231296	0.504606	0.691419
478	H	0.80736	0.996527	0.691739
479	H	0.060928	0.566951	0.97755
480	H	0.979428	0.9315	0.97735
481	C	0.243758	0.790633	0.673732
482	N	0.29649	0.789462	0.667735
483	C	0.323941	0.750394	0.662334
484	N	0.296137	0.711272	0.661981
485	C	0.243313	0.71007	0.667698
486	N	0.21835	0.750333	0.674075
487	C	0.379516	0.750543	0.658814
488	C	0.408743	0.789403	0.671191
489	C	0.463668	0.788985	0.669981
490	C	0.491888	0.749897	0.655817
491	C	0.462612	0.71127	0.64277
492	C	0.407658	0.711486	0.644466
493	C	0.216409	0.832065	0.677395
494	C	0.241106	0.872983	0.666248
495	C	0.213009	0.913661	0.665891
496	C	0.159602	0.916869	0.679219
497	C	0.135733	0.875584	0.691549
498	C	0.163002	0.834259	0.690036
499	C	0.215445	0.668802	0.666354
500	C	0.161155	0.666996	0.675842
501	C	0.13388	0.625709	0.675028
502	C	0.159316	0.584017	0.664731
503	C	0.213138	0.586563	0.65321
504	C	0.240703	0.627598	0.654554
505	H	0.231766	0.940295	0.65197
506	H	0.278986	0.873246	0.654814
507	H	0.09796	0.874706	0.70284
508	H	0.143361	0.805757	0.699106
509	H	0.140838	0.695694	0.684766
510	H	0.09543	0.626507	0.684736
511	H	0.27942	0.62695	0.64555
512	H	0.232754	0.558667	0.64116
513	H	0.388432	0.682595	0.634866
514	H	0.481076	0.682379	0.631566
515	H	0.48286	0.817432	0.680892
516	H	0.390414	0.818258	0.682689
517	C	0.795298	0.709537	0.673635
518	N	0.742795	0.710357	0.667705
519	C	0.715559	0.749106	0.662284
520	N	0.743385	0.788201	0.661854
521	C	0.795993	0.78974	0.667511
522	N	0.820702	0.749855	0.673898
523	C	0.660117	0.748756	0.658801
524	C	0.6304	0.710651	0.671235
525	C	0.575522	0.71099	0.670008
526	C	0.547863	0.749232	0.655827
527	C	0.577656	0.787074	0.64275
528	C	0.632544	0.786955	0.644433
529	C	0.822494	0.668325	0.677382
530	C	0.798191	0.626717	0.666428
531	C	0.826324	0.586022	0.666071
532	C	0.879273	0.583646	0.679229
533	C	0.902657	0.625686	0.691463
534	C	0.875425	0.666907	0.689946
535	C	0.823922	0.830923	0.666108
536	C	0.877871	0.833264	0.675458
537	C	0.905207	0.874487	0.674592
538	C	0.880156	0.9156	0.664431
539	C	0.826742	0.912403	0.653037
540	C	0.799103	0.871458	0.654434
541	H	0.808103	0.55857	0.652144
542	H	0.760796	0.625768	0.654914
543	H	0.940028	0.62728	0.70264
544	H	0.894746	0.69597	0.698876
545	H	0.897862	0.805078	0.684299
546	H	0.94329	0.874239	0.684246
547	H	0.760696	0.871607	0.645563
548	H	0.807531	0.939648	0.641196
549	H	0.65215	0.815262	0.634799
550	H	0.55964	0.81529	0.631522
551	H	0.555899	0.683193	0.680925
552	H	0.648278	0.682466	0.682699
