data_C198H144N18_2018-02-15_10:42:23
#******************************************
#
# CIF file created by Zeo++
# Zeo++ is an open source package to
# analyze microporous materials
#
#*******************************************

_cell_length_a		29.4842   
_cell_length_b		29.4842   
_cell_length_c		29.9022   
_cell_angle_alpha		90   
_cell_angle_beta		90   
_cell_angle_gamma		120   

_symmetry_space_group_name_H-M		'P1'
_symmetry_Int_Tables_number		1
_symmetry_cell_setting		Monoclinic

loop_
_symmetry_equiv_pos_as_xyz
'+x,+y,+z'

loop_
_atom_site_label
_atom_site_type_symbol
_atom_site_fract_x
_atom_site_fract_y
_atom_site_fract_z
1	C	0.029839	0.51533	0.04305
2	C	0.030144	0.515483	0.293693
3	H	0.029895	0.515358	0.115415
4	C	0.029839	0.51533	0.376384
5	C	0.030144	0.515483	0.627025
6	H	0.029895	0.515358	0.448747
7	C	0.029839	0.51533	0.709715
8	C	0.030144	0.515483	0.960359
9	H	0.029895	0.515358	0.782081
10	H	0.043307	0.552148	0.230159
11	H	0.04331	0.491981	0.230159
12	H	0.043307	0.552148	0.563491
13	H	0.04331	0.491981	0.563491
14	H	0.043307	0.552148	0.896825
15	H	0.04331	0.491981	0.896825
16	C	0.362847	0.722422	0.001883
17	N	0.388207	0.694514	0.001891
18	C	0.362847	0.641248	0.001885
19	N	0.309579	0.615886	0.00189
20	C	0.281673	0.641248	0.001882
21	N	0.309578	0.694514	0.001889
22	C	0.39083	0.613266	0.001998
23	C	0.446378	0.639956	0.002049
24	C	0.474023	0.612475	0.002122
25	C	0.446864	0.557231	0.002233
26	C	0.391619	0.530071	0.002122
27	C	0.364136	0.557713	0.00205
28	C	0.390829	0.778386	0.001997
29	C	0.446377	0.807242	0.002049
30	C	0.474021	0.862368	0.002123
31	C	0.446863	0.890456	0.002235
32	C	0.391618	0.862368	0.002122
33	C	0.364136	0.807242	0.002048
34	C	0.225708	0.613266	0.001996
35	C	0.196849	0.639956	0.002047
36	C	0.141724	0.612475	0.002123
37	C	0.113638	0.557231	0.002236
38	C	0.141724	0.530071	0.002123
39	C	0.196848	0.557713	0.002048
40	H	0.514116	0.881867	0.002027
41	H	0.467644	0.788471	0.001957
42	H	0.371022	0.881867	0.002028
43	H	0.324097	0.788471	0.001958
44	H	0.21562	0.679992	0.001957
45	H	0.122225	0.633071	0.002027
46	H	0.21562	0.536447	0.001956
47	H	0.122225	0.489976	0.002026
48	H	0.324098	0.536447	0.00196
49	H	0.371022	0.489976	0.002027
50	H	0.514118	0.633071	0.002028
51	H	0.467645	0.679992	0.00196
52	C	0.642064	0.280858	0.001543
53	N	0.616702	0.30876	0.00154
54	C	0.642063	0.362026	0.001543
55	N	0.695329	0.387389	0.00154
56	C	0.723232	0.362026	0.001543
57	N	0.695331	0.30876	0.00154
58	C	0.614085	0.390006	0.001483
59	C	0.558532	0.363312	0.001446
60	C	0.530888	0.390798	0.001406
61	C	0.558063	0.446027	0.001393
62	C	0.613291	0.473202	0.001406
63	C	0.640779	0.445557	0.001446
64	C	0.614084	0.224898	0.001483
65	C	0.558535	0.196041	0.001449
66	C	0.530888	0.140909	0.001406
67	C	0.558062	0.112855	0.001393
68	C	0.613295	0.14091	0.001406
69	C	0.640779	0.196041	0.001446
70	C	0.779194	0.390006	0.001483
71	C	0.808049	0.363312	0.001446
72	C	0.863181	0.390798	0.001406
73	C	0.891236	0.446027	0.001393
74	C	0.863181	0.473202	0.001406
75	C	0.808048	0.445557	0.001446
76	H	0.490788	0.121421	0.001426
77	H	0.537267	0.214813	0.001476
78	H	0.633903	0.121422	0.001426
79	H	0.680819	0.214814	0.001476
80	H	0.789278	0.323273	0.001476
81	H	0.882671	0.370188	0.001426
82	H	0.789275	0.466823	0.001476
83	H	0.882671	0.513302	0.001426
84	H	0.680817	0.466823	0.001476
85	H	0.633904	0.513302	0.001426
86	H	0.490789	0.370188	0.001426
87	H	0.537268	0.323273	0.001476
88	C	0.530359	0.473735	0.334869
89	C	0.516458	0.487634	0.042184
90	C	0.488762	0.51533	0.043048
91	C	0.474713	0.529382	0.001783
92	C	0.488611	0.515483	0.293691
93	H	0.526761	0.47733	0.071589
94	C	0.516306	0.487783	0.294373
95	H	0.526479	0.477612	0.264802
96	C	0.475165	0.528928	0.087182
97	H	0.488733	0.515358	0.115413
98	H	0.432745	0.511101	0.0901
99	H	0.492992	0.571346	0.090101
100	C	0.475947	0.528145	0.248743
101	H	0.454633	0.549461	0.249971
102	H	0.451942	0.491977	0.230157
103	H	0.512113	0.552148	0.230157
104	C	0.530361	0.057445	0.334869
105	C	0.51646	0.029645	0.042184
106	C	0.488762	0.974254	0.043049
107	C	0.474712	0.946154	0.001784
108	C	0.488609	0.973948	0.293692
109	H	0.526764	0.050251	0.071589
110	C	0.516309	0.029342	0.294373
111	H	0.526481	0.049686	0.264802
112	C	0.475165	0.947059	0.087183
113	H	0.488735	0.974199	0.115414
114	H	0.492994	0.922468	0.090102
115	H	0.432745	0.922468	0.090102
116	C	0.475946	0.948621	0.248744
117	H	0.454632	0.905992	0.249972
118	H	0.512113	0.960785	0.230157
119	H	0.451943	0.960785	0.230157
120	C	0.946648	0.473735	0.334869
121	C	0.974446	0.487634	0.042185
122	C	0.057941	0.529382	0.001785
123	H	0.953841	0.47733	0.07159
124	C	0.974749	0.487787	0.294374
125	H	0.954406	0.477612	0.264803
126	C	0.057034	0.528928	0.087184
127	H	0.081624	0.571346	0.090103
128	H	0.081626	0.511101	0.090103
129	C	0.05547	0.528145	0.248745
130	H	0.0981	0.549461	0.249973
131	C	0.362847	0.722422	0.335217
132	N	0.388207	0.694514	0.335223
133	C	0.362847	0.641248	0.335217
134	N	0.309579	0.615886	0.335223
135	C	0.281673	0.641248	0.335213
136	N	0.309578	0.694514	0.335223
137	C	0.39083	0.613266	0.33533
138	C	0.446378	0.639956	0.33538
139	C	0.474023	0.612475	0.335454
140	C	0.446864	0.557231	0.335564
141	C	0.391619	0.530071	0.335454
142	C	0.364136	0.557713	0.335384
143	C	0.390829	0.778386	0.33533
144	C	0.446377	0.807242	0.335384
145	C	0.474021	0.862368	0.335457
146	C	0.446863	0.890456	0.335568
147	C	0.391618	0.862368	0.335454
148	C	0.364136	0.807242	0.33538
149	C	0.225708	0.613266	0.335327
150	C	0.196849	0.639956	0.33538
151	C	0.141724	0.612475	0.335457
152	C	0.113638	0.557231	0.335568
153	C	0.141724	0.530071	0.335454
154	C	0.196848	0.557713	0.33538
155	H	0.514116	0.881867	0.33536
156	H	0.467644	0.788471	0.33529
157	H	0.371022	0.881867	0.33536
158	H	0.324097	0.788471	0.33529
159	H	0.21562	0.679992	0.33529
160	H	0.122225	0.633071	0.33536
161	H	0.21562	0.536447	0.33529
162	H	0.122225	0.489976	0.33536
163	H	0.324098	0.536447	0.335293
164	H	0.371022	0.489976	0.33536
165	H	0.514118	0.633071	0.33536
166	H	0.467645	0.679992	0.335293
167	C	0.642064	0.280858	0.334879
168	N	0.616702	0.30876	0.334875
169	C	0.642063	0.362026	0.334875
170	N	0.695329	0.387389	0.334872
171	C	0.723232	0.362026	0.334875
172	N	0.695331	0.30876	0.334872
173	C	0.614085	0.390006	0.334819
174	C	0.558532	0.363312	0.334782
175	C	0.530888	0.390798	0.334742
176	C	0.558063	0.446027	0.334725
177	C	0.613291	0.473202	0.334742
178	C	0.640779	0.445557	0.334782
179	C	0.614084	0.224898	0.334819
180	C	0.558535	0.196041	0.334782
181	C	0.530888	0.140909	0.334742
182	C	0.558062	0.112855	0.334725
183	C	0.613295	0.14091	0.334742
184	C	0.640779	0.196041	0.334782
185	C	0.779194	0.390006	0.334815
186	C	0.808049	0.363312	0.334782
187	C	0.863181	0.390798	0.334742
188	C	0.891236	0.446027	0.334725
189	C	0.863181	0.473202	0.334738
190	C	0.808048	0.445557	0.334782
191	H	0.490788	0.121421	0.334762
192	H	0.537267	0.214813	0.334812
193	H	0.633903	0.121422	0.334762
194	H	0.680819	0.214814	0.334812
195	H	0.789278	0.323273	0.334809
196	H	0.882671	0.370188	0.334762
197	H	0.789275	0.466823	0.334812
198	H	0.882671	0.513302	0.334762
199	H	0.680817	0.466823	0.334812
200	H	0.633904	0.513302	0.334762
201	H	0.490789	0.370188	0.334762
202	H	0.537268	0.323273	0.334812
203	C	0.530359	0.473735	0.668203
204	C	0.516458	0.487634	0.375518
205	C	0.488762	0.51533	0.376381
206	C	0.474713	0.529382	0.335116
207	C	0.488611	0.515483	0.627025
208	H	0.526761	0.47733	0.404924
209	C	0.516306	0.487783	0.627707
210	H	0.526479	0.477612	0.598134
211	C	0.475165	0.528928	0.420515
212	H	0.488733	0.515358	0.448747
213	H	0.432745	0.511101	0.423434
214	H	0.492992	0.571346	0.423434
215	C	0.475947	0.528145	0.582075
216	H	0.454633	0.549461	0.583302
217	H	0.451942	0.491977	0.563491
218	H	0.512113	0.552148	0.563491
219	C	0.530361	0.057445	0.668203
220	C	0.51646	0.029645	0.375518
221	C	0.488762	0.974254	0.376381
222	C	0.474712	0.946154	0.335116
223	C	0.488609	0.973948	0.627025
224	H	0.526764	0.050251	0.404924
225	C	0.516309	0.029342	0.627707
226	H	0.526481	0.049686	0.598134
227	C	0.475165	0.947059	0.420515
228	H	0.488735	0.974199	0.448747
229	H	0.492994	0.922468	0.423434
230	H	0.432745	0.922468	0.423434
231	C	0.475946	0.948621	0.582078
232	H	0.454632	0.905992	0.583306
233	H	0.512113	0.960785	0.563491
234	H	0.451943	0.960785	0.563491
235	C	0.946648	0.473735	0.668203
236	C	0.974446	0.487634	0.375518
237	C	0.057941	0.529382	0.335116
238	H	0.953841	0.47733	0.404924
239	C	0.974749	0.487787	0.627707
240	H	0.954406	0.477612	0.598134
241	C	0.057034	0.528928	0.420518
242	H	0.081624	0.571346	0.423434
243	H	0.081626	0.511101	0.423434
244	C	0.05547	0.528145	0.582078
245	H	0.0981	0.549461	0.583306
246	C	0.362847	0.722422	0.66855
247	N	0.388207	0.694514	0.668557
248	C	0.362847	0.641248	0.66855
249	N	0.309579	0.615886	0.668557
250	C	0.281673	0.641248	0.668547
251	N	0.309578	0.694514	0.668554
252	C	0.39083	0.613266	0.668664
253	C	0.446378	0.639956	0.668714
254	C	0.474023	0.612475	0.668788
255	C	0.446864	0.557231	0.668898
256	C	0.391619	0.530071	0.668788
257	C	0.364136	0.557713	0.668714
258	C	0.390829	0.778386	0.668664
259	C	0.446377	0.807242	0.668714
260	C	0.474021	0.862368	0.668788
261	C	0.446863	0.890456	0.668901
262	C	0.391618	0.862368	0.668788
263	C	0.364136	0.807242	0.668714
264	C	0.225708	0.613266	0.668661
265	C	0.196849	0.639956	0.668711
266	C	0.141724	0.612475	0.668788
267	C	0.113638	0.557231	0.668901
268	C	0.141724	0.530071	0.668788
269	C	0.196848	0.557713	0.668714
270	H	0.514116	0.881867	0.668691
271	H	0.467644	0.788471	0.668624
272	H	0.371022	0.881867	0.668694
273	H	0.324097	0.788471	0.668624
274	H	0.21562	0.679992	0.668624
275	H	0.122225	0.633071	0.668694
276	H	0.21562	0.536447	0.668621
277	H	0.122225	0.489976	0.668691
278	H	0.324098	0.536447	0.668624
279	H	0.371022	0.489976	0.668694
280	H	0.514118	0.633071	0.668694
281	H	0.467645	0.679992	0.668627
282	C	0.642064	0.280858	0.668209
283	N	0.616702	0.30876	0.668206
284	C	0.642063	0.362026	0.668209
285	N	0.695329	0.387389	0.668206
286	C	0.723232	0.362026	0.668209
287	N	0.695331	0.30876	0.668206
288	C	0.614085	0.390006	0.668149
289	C	0.558532	0.363312	0.668116
290	C	0.530888	0.390798	0.668075
291	C	0.558063	0.446027	0.668059
292	C	0.613291	0.473202	0.668075
293	C	0.640779	0.445557	0.668116
294	C	0.614084	0.224898	0.668149
295	C	0.558535	0.196041	0.668116
296	C	0.530888	0.140909	0.668075
297	C	0.558062	0.112855	0.668059
298	C	0.613295	0.14091	0.668075
299	C	0.640779	0.196041	0.668116
300	C	0.779194	0.390006	0.668149
301	C	0.808049	0.363312	0.668112
302	C	0.863181	0.390798	0.668075
303	C	0.891236	0.446027	0.668059
304	C	0.863181	0.473202	0.668072
305	C	0.808048	0.445557	0.668112
306	H	0.490788	0.121421	0.668092
307	H	0.537267	0.214813	0.668146
308	H	0.633903	0.121422	0.668092
309	H	0.680819	0.214814	0.668146
310	H	0.789278	0.323273	0.668142
311	H	0.882671	0.370188	0.668092
312	H	0.789275	0.466823	0.668142
313	H	0.882671	0.513302	0.668096
314	H	0.680817	0.466823	0.668146
315	H	0.633904	0.513302	0.668092
316	H	0.490789	0.370188	0.668096
317	H	0.537268	0.323273	0.668146
318	C	0.530359	0.473735	0.001533
319	C	0.516458	0.487634	0.708848
320	C	0.488762	0.51533	0.709715
321	C	0.474713	0.529382	0.66845
322	C	0.488611	0.515483	0.960359
323	H	0.526761	0.47733	0.738254
324	C	0.516306	0.487783	0.961038
325	H	0.526479	0.477612	0.931468
326	C	0.475165	0.528928	0.753849
327	H	0.488733	0.515358	0.782077
328	H	0.432745	0.511101	0.756765
329	H	0.492992	0.571346	0.756765
330	C	0.475947	0.528145	0.915409
331	H	0.454633	0.549461	0.916636
332	H	0.451942	0.491977	0.896821
333	H	0.512113	0.552148	0.896821
334	C	0.530361	0.057445	0.001533
335	C	0.51646	0.029645	0.708848
336	C	0.488762	0.974254	0.709715
337	C	0.474712	0.946154	0.66845
338	C	0.488609	0.973948	0.960359
339	H	0.526764	0.050251	0.738254
340	C	0.516309	0.029342	0.961041
341	H	0.526481	0.049686	0.931468
342	C	0.475165	0.947059	0.753849
343	H	0.488735	0.974199	0.782081
344	H	0.492994	0.922468	0.756768
345	H	0.432745	0.922468	0.756768
346	C	0.475946	0.948621	0.915409
347	H	0.454632	0.905992	0.916636
348	H	0.512113	0.960785	0.896821
349	H	0.451943	0.960785	0.896825
350	C	0.946648	0.473735	0.001536
351	C	0.974446	0.487634	0.708852
352	C	0.057941	0.529382	0.66845
353	H	0.953841	0.47733	0.738258
354	C	0.974749	0.487787	0.961041
355	H	0.954406	0.477612	0.931468
356	C	0.057034	0.528928	0.753849
357	H	0.081624	0.571346	0.756768
358	H	0.081626	0.511101	0.756768
359	C	0.05547	0.528145	0.915412
360	H	0.0981	0.549461	0.916639
