data_C324H108N108O36_2018-02-15_10:37:21
#******************************************
#
# CIF file created by Zeo++
# Zeo++ is an open source package to
# analyze microporous materials
#
#*******************************************

_cell_length_a		29.0913   
_cell_length_b		29.0913   
_cell_length_c		29.4522   
_cell_angle_alpha		90   
_cell_angle_beta		90   
_cell_angle_gamma		120   

_symmetry_space_group_name_H-M		'P1'
_symmetry_Int_Tables_number		1
_symmetry_cell_setting		Monoclinic

loop_
_symmetry_equiv_pos_as_xyz
'+x,+y,+z'

loop_
_atom_site_label
_atom_site_type_symbol
_atom_site_fract_x
_atom_site_fract_y
_atom_site_fract_z
1	N	0.153731	0.369521	0.00856
2	C	0.126452	0.315552	0.008614
3	N	0.15373	0.288861	0.00856
4	C	0.041511	0.273081	0.049072
5	C	0.070805	0.287729	0.341618
6	C	0.041909	0.27328	0.300412
7	H	0.061522	0.283087	0.269969
8	N	0.057476	0.281065	0.092164
9	N	0.153731	0.369521	0.341893
10	C	0.126452	0.315552	0.341947
11	N	0.15373	0.288861	0.341897
12	C	0.041511	0.273081	0.382406
13	C	0.070805	0.287729	0.674948
14	C	0.041909	0.27328	0.633746
15	H	0.061522	0.283087	0.603303
16	N	0.057476	0.281065	0.425496
17	N	0.153731	0.369521	0.675227
18	C	0.126452	0.315552	0.675281
19	N	0.15373	0.288861	0.67523
20	C	0.041511	0.273081	0.71574
21	C	0.070805	0.287729	0.008282
22	C	0.041909	0.27328	0.967079
23	H	0.061522	0.283087	0.936633
24	N	0.057476	0.281065	0.75883
25	N	0.153729	0.86952	0.00856
26	C	0.126453	0.815554	0.008614
27	N	0.153729	0.788861	0.00856
28	C	0.041513	0.773083	0.049072
29	C	0.070805	0.78773	0.341618
30	C	0.041908	0.773282	0.300412
31	H	0.061521	0.783086	0.269969
32	N	0.057476	0.781066	0.092164
33	N	0.153729	0.86952	0.341893
34	C	0.126453	0.815554	0.341947
35	N	0.153729	0.788861	0.341897
36	C	0.041513	0.773083	0.382406
37	C	0.070805	0.78773	0.674948
38	C	0.041908	0.773282	0.633746
39	H	0.061521	0.783086	0.603303
40	N	0.057476	0.781066	0.425496
41	N	0.153729	0.86952	0.675227
42	C	0.126453	0.815554	0.675281
43	N	0.153729	0.788861	0.67523
44	C	0.041513	0.773083	0.71574
45	C	0.070805	0.78773	0.008282
46	C	0.041908	0.773282	0.967079
47	H	0.061521	0.783086	0.936633
48	N	0.057476	0.781066	0.75883
49	C	0.207699	0.396798	0.008614
50	C	0.207698	0.315551	0.008614
51	N	0.234389	0.36952	0.00856
52	C	0.235521	0.287727	0.341618
53	H	0.240164	0.283086	0.269969
54	N	0.242186	0.281063	0.092163
55	C	0.235523	0.452445	0.341615
56	H	0.240164	0.461729	0.269968
57	N	0.242186	0.465774	0.092163
58	C	0.207699	0.396798	0.341947
59	C	0.207698	0.315551	0.341947
60	N	0.234389	0.36952	0.341893
61	C	0.235521	0.287727	0.674948
62	H	0.240164	0.283086	0.603303
63	N	0.242186	0.281063	0.425496
64	C	0.235523	0.452445	0.674948
65	H	0.240164	0.461729	0.6033
66	N	0.242186	0.465774	0.425496
67	C	0.207699	0.396798	0.675281
68	C	0.207698	0.315551	0.675281
69	N	0.234389	0.36952	0.675227
70	C	0.235521	0.287727	0.008282
71	H	0.240164	0.283086	0.936637
72	N	0.242186	0.281063	0.75883
73	C	0.235523	0.452445	0.008282
74	H	0.240164	0.461729	0.936633
75	N	0.242186	0.465774	0.75883
76	C	0.207698	0.896796	0.008614
77	C	0.207697	0.81555	0.008614
78	N	0.234389	0.86952	0.00856
79	C	0.23552	0.787726	0.341618
80	H	0.240163	0.783086	0.269969
81	N	0.242184	0.781062	0.092163
82	C	0.235522	0.952445	0.341615
83	H	0.240164	0.961729	0.269968
84	N	0.242186	0.965774	0.092163
85	C	0.207698	0.896796	0.341947
86	C	0.207697	0.81555	0.341947
87	N	0.234389	0.86952	0.341893
88	C	0.23552	0.787726	0.674948
89	H	0.240163	0.783086	0.603303
90	N	0.242184	0.781062	0.425496
91	C	0.235522	0.952445	0.674948
92	H	0.240164	0.961729	0.6033
93	N	0.242186	0.965774	0.425496
94	C	0.207698	0.896796	0.675281
95	C	0.207697	0.81555	0.675281
96	N	0.234389	0.86952	0.675227
97	C	0.23552	0.787726	0.008282
98	H	0.240163	0.783086	0.936637
99	N	0.242184	0.781062	0.75883
100	C	0.235522	0.952445	0.008282
101	H	0.240164	0.961729	0.936633
102	N	0.242186	0.965774	0.75883
103	C	0.277849	0.245402	0.049461
104	C	0.250169	0.27308	0.049072
105	C	0.24997	0.27328	0.300412
106	C	0.27804	0.245212	0.300515
107	C	0.26452	0.25873	0.117023
108	H	0.264287	0.258963	0.151693
109	C	0.277849	0.037097	0.049461
110	C	0.250169	0.481738	0.049072
111	C	0.24997	0.481341	0.300412
112	C	0.27804	0.03748	0.300515
113	C	0.264519	0.010439	0.117024
114	H	0.264286	0.009973	0.151693
115	C	0.277849	0.245402	0.382793
116	C	0.250169	0.27308	0.382406
117	C	0.24997	0.27328	0.633746
118	C	0.27804	0.245212	0.633848
119	C	0.26452	0.25873	0.450357
120	H	0.264287	0.258963	0.485027
121	C	0.277849	0.037097	0.382793
122	C	0.250169	0.481738	0.382406
123	C	0.24997	0.481341	0.633746
124	C	0.27804	0.03748	0.633848
125	C	0.264519	0.010439	0.450357
126	H	0.264286	0.009973	0.485027
127	C	0.277849	0.245402	0.716127
128	C	0.250169	0.27308	0.71574
129	C	0.24997	0.27328	0.967079
130	C	0.27804	0.245212	0.967181
131	C	0.26452	0.25873	0.783691
132	H	0.264287	0.258963	0.81836
133	C	0.277849	0.037097	0.716127
134	C	0.250169	0.481738	0.71574
135	C	0.24997	0.481341	0.967079
136	C	0.27804	0.03748	0.967181
137	C	0.264519	0.010439	0.783691
138	H	0.264286	0.009973	0.81836
139	C	0.277848	0.745402	0.049461
140	C	0.250168	0.773079	0.049072
141	C	0.249969	0.773278	0.300412
142	C	0.278039	0.745211	0.300515
143	C	0.264519	0.758731	0.117023
144	H	0.264287	0.758965	0.151693
145	C	0.277848	0.537097	0.049461
146	C	0.250168	0.981738	0.049072
147	C	0.24997	0.981341	0.300412
148	C	0.27804	0.537482	0.300515
149	C	0.264519	0.510439	0.117024
150	H	0.264287	0.509975	0.151693
151	C	0.277848	0.745402	0.382793
152	C	0.250168	0.773079	0.382406
153	C	0.249969	0.773278	0.633746
154	C	0.278039	0.745211	0.633848
155	C	0.264519	0.758731	0.450357
156	H	0.264287	0.758965	0.485027
157	C	0.277848	0.537097	0.382793
158	C	0.250168	0.981738	0.382406
159	C	0.24997	0.981341	0.633746
160	C	0.27804	0.537482	0.633848
161	C	0.264519	0.510439	0.450357
162	H	0.264287	0.509975	0.485027
163	C	0.277848	0.745402	0.716127
164	C	0.250168	0.773079	0.71574
165	C	0.249969	0.773278	0.967079
166	C	0.278039	0.745211	0.967181
167	C	0.264519	0.758731	0.783691
168	H	0.264287	0.758965	0.81836
169	C	0.277848	0.537097	0.716127
170	C	0.250168	0.981738	0.71574
171	C	0.24997	0.981341	0.967079
172	C	0.27804	0.537482	0.967181
173	C	0.264519	0.510439	0.783691
174	H	0.264287	0.509975	0.81836
175	C	0.3202	0.121801	0.008954
176	N	0.374169	0.14908	0.008883
177	C	0.40145	0.20305	0.008951
178	N	0.37417	0.229739	0.008883
179	C	0.320201	0.203051	0.008951
180	N	0.293512	0.149082	0.008883
181	C	0.292383	0.23087	0.341849
182	H	0.287922	0.23533	0.270142
183	O	0.287632	0.23562	0.092571
184	C	0.292382	0.066164	0.341849
185	H	0.287922	0.057244	0.270143
186	O	0.287631	0.056662	0.092572
187	C	0.457086	0.230868	0.341849
188	C	0.486153	0.245401	0.049461
189	C	0.485772	0.245211	0.300515
190	H	0.466009	0.235329	0.270142
191	O	0.466586	0.235618	0.092571
192	C	0.512809	0.25873	0.117023
193	H	0.513276	0.258963	0.151693
194	C	0.3202	0.121801	0.342287
195	N	0.374169	0.14908	0.342216
196	C	0.40145	0.20305	0.342284
197	N	0.37417	0.229739	0.342216
198	C	0.320201	0.203051	0.342284
199	N	0.293512	0.149082	0.342216
200	C	0.292383	0.23087	0.675183
201	H	0.287922	0.23533	0.603476
202	O	0.287632	0.23562	0.425904
203	C	0.292382	0.066164	0.675183
204	H	0.287922	0.057244	0.603476
205	O	0.287631	0.056662	0.425904
206	C	0.457086	0.230868	0.675183
207	C	0.486153	0.245401	0.382793
208	C	0.485772	0.245211	0.633848
209	H	0.466009	0.235329	0.603476
210	O	0.466586	0.235618	0.425904
211	C	0.512809	0.25873	0.450357
212	H	0.513276	0.258963	0.485027
213	C	0.3202	0.121801	0.675621
214	N	0.374169	0.14908	0.675549
215	C	0.40145	0.20305	0.675617
216	N	0.37417	0.229739	0.675549
217	C	0.320201	0.203051	0.675617
218	N	0.293512	0.149082	0.675549
219	C	0.292383	0.23087	0.008516
220	H	0.287922	0.23533	0.93681
221	O	0.287632	0.23562	0.759237
222	C	0.292382	0.066164	0.008516
223	H	0.287922	0.057244	0.93681
224	O	0.287631	0.056662	0.759237
225	C	0.457086	0.230868	0.008516
226	C	0.486153	0.245401	0.716127
227	C	0.485772	0.245211	0.967181
228	H	0.466009	0.235329	0.93681
229	O	0.466586	0.235618	0.759237
230	C	0.512809	0.25873	0.783691
231	H	0.513276	0.258963	0.81836
232	C	0.320199	0.6218	0.008954
233	N	0.374168	0.649081	0.008883
234	C	0.401449	0.70305	0.008951
235	N	0.374169	0.729739	0.008883
236	C	0.3202	0.70305	0.008951
237	N	0.29351	0.649081	0.008883
238	C	0.292383	0.730871	0.341849
239	H	0.287921	0.735328	0.270142
240	O	0.287632	0.735622	0.092571
241	C	0.29238	0.566163	0.341849
242	H	0.287921	0.557244	0.270143
243	O	0.28763	0.556661	0.092572
244	C	0.457085	0.730867	0.341849
245	C	0.486153	0.745402	0.049461
246	C	0.485771	0.745211	0.300515
247	H	0.466006	0.735328	0.270142
248	O	0.466587	0.735618	0.092571
249	C	0.512809	0.758731	0.117023
250	H	0.513275	0.758965	0.151693
251	C	0.320199	0.6218	0.342287
252	N	0.374168	0.649081	0.342216
253	C	0.401449	0.70305	0.342284
254	N	0.374169	0.729739	0.342216
255	C	0.3202	0.70305	0.342284
256	N	0.29351	0.649081	0.342216
257	C	0.292383	0.730871	0.675183
258	H	0.287921	0.735328	0.603476
259	O	0.287632	0.735622	0.425904
260	C	0.29238	0.566163	0.675183
261	H	0.287921	0.557244	0.603476
262	O	0.28763	0.556661	0.425904
263	C	0.457085	0.730867	0.675183
264	C	0.486153	0.745402	0.382793
265	C	0.485771	0.745211	0.633848
266	H	0.466006	0.735328	0.603476
267	O	0.466587	0.735618	0.425904
268	C	0.512809	0.758731	0.450357
269	H	0.513275	0.758965	0.485027
270	C	0.320199	0.6218	0.675621
271	N	0.374168	0.649081	0.675549
272	C	0.401449	0.70305	0.675617
273	N	0.374169	0.729739	0.675549
274	C	0.3202	0.70305	0.675617
275	N	0.29351	0.649081	0.675549
276	C	0.292383	0.730871	0.008516
277	H	0.287921	0.735328	0.93681
278	O	0.287632	0.735622	0.759237
279	C	0.29238	0.566163	0.008516
280	H	0.287921	0.557244	0.93681
281	O	0.28763	0.556661	0.759237
282	C	0.457085	0.730867	0.008516
283	C	0.486153	0.745402	0.716127
284	C	0.485771	0.745211	0.967181
285	H	0.466006	0.735328	0.93681
286	O	0.466587	0.735618	0.759237
287	C	0.512809	0.758731	0.783691
288	H	0.513275	0.758965	0.81836
289	C	0.707698	0.396798	0.008614
290	N	0.653732	0.369521	0.00856
291	C	0.626452	0.315552	0.008614
292	N	0.65373	0.288861	0.00856
293	C	0.707699	0.315551	0.008614
294	N	0.734387	0.36952	0.00856
295	C	0.820199	0.121801	0.008954
296	N	0.874167	0.14908	0.008883
297	C	0.901451	0.20305	0.008951
298	N	0.874168	0.229739	0.008883
299	C	0.8202	0.203051	0.008951
300	N	0.793512	0.149082	0.008883
301	C	0.792382	0.23087	0.341849
302	C	0.777848	0.245402	0.049461
303	C	0.75017	0.27308	0.049072
304	C	0.735521	0.287727	0.341618
305	C	0.749971	0.27328	0.300412
306	C	0.778038	0.245212	0.300515
307	H	0.787924	0.23533	0.270142
308	H	0.740165	0.283086	0.269969
309	N	0.742185	0.281063	0.092163
310	O	0.787632	0.23562	0.092571
311	C	0.76452	0.25873	0.117023
312	H	0.764286	0.258963	0.151693
313	C	0.792381	0.066164	0.341849
314	C	0.777848	0.037097	0.049461
315	C	0.750168	0.481738	0.049072
316	C	0.735522	0.452445	0.341615
317	C	0.74997	0.481341	0.300412
318	C	0.778039	0.03748	0.300515
319	H	0.787921	0.057244	0.270143
320	H	0.740164	0.461729	0.269968
321	N	0.742186	0.465774	0.092163
322	O	0.78763	0.056662	0.092572
323	C	0.764519	0.010439	0.117024
324	H	0.764286	0.009973	0.151693
325	C	0.957087	0.230868	0.341849
326	C	0.986154	0.245401	0.049461
327	C	0.54151	0.273081	0.049072
328	C	0.570806	0.287729	0.341618
329	C	0.541909	0.27328	0.300412
330	C	0.98577	0.245211	0.300515
331	H	0.966007	0.235329	0.270142
332	H	0.561521	0.283087	0.269969
333	N	0.557478	0.281065	0.092164
334	O	0.966588	0.235618	0.092571
335	C	0.012811	0.25873	0.117023
336	H	0.013275	0.258963	0.151693
337	C	0.707698	0.396798	0.341947
338	N	0.653732	0.369521	0.341893
339	C	0.626452	0.315552	0.341947
340	N	0.65373	0.288861	0.341897
341	C	0.707699	0.315551	0.341947
342	N	0.734387	0.36952	0.341893
343	C	0.820199	0.121801	0.342287
344	N	0.874167	0.14908	0.342216
345	C	0.901451	0.20305	0.342284
346	N	0.874168	0.229739	0.342216
347	C	0.8202	0.203051	0.342284
348	N	0.793512	0.149082	0.342216
349	C	0.792382	0.23087	0.675183
350	C	0.777848	0.245402	0.382793
351	C	0.75017	0.27308	0.382406
352	C	0.735521	0.287727	0.674948
353	C	0.749971	0.27328	0.633746
354	C	0.778038	0.245212	0.633848
355	H	0.787924	0.23533	0.603476
356	H	0.740165	0.283086	0.603303
357	N	0.742185	0.281063	0.425496
358	O	0.787632	0.23562	0.425904
359	C	0.76452	0.25873	0.450357
360	H	0.764286	0.258963	0.485027
361	C	0.792381	0.066164	0.675183
362	C	0.777848	0.037097	0.382793
363	C	0.750168	0.481738	0.382406
364	C	0.735522	0.452445	0.674948
365	C	0.74997	0.481341	0.633746
366	C	0.778039	0.03748	0.633848
367	H	0.787921	0.057244	0.603476
368	H	0.740164	0.461729	0.6033
369	N	0.742186	0.465774	0.425496
370	O	0.78763	0.056662	0.425904
371	C	0.764519	0.010439	0.450357
372	H	0.764286	0.009973	0.485027
373	C	0.957087	0.230868	0.675183
374	C	0.986154	0.245401	0.382793
375	C	0.54151	0.273081	0.382406
376	C	0.570806	0.287729	0.674948
377	C	0.541909	0.27328	0.633746
378	C	0.98577	0.245211	0.633848
379	H	0.966007	0.235329	0.603476
380	H	0.561521	0.283087	0.603303
381	N	0.557478	0.281065	0.425496
382	O	0.966588	0.235618	0.425904
383	C	0.012811	0.25873	0.450357
384	H	0.013275	0.258963	0.485027
385	C	0.707698	0.396798	0.675281
386	N	0.653732	0.369521	0.675227
387	C	0.626452	0.315552	0.675281
388	N	0.65373	0.288861	0.67523
389	C	0.707699	0.315551	0.675281
390	N	0.734387	0.36952	0.675227
391	C	0.820199	0.121801	0.675621
392	N	0.874167	0.14908	0.675549
393	C	0.901451	0.20305	0.675617
394	N	0.874168	0.229739	0.675549
395	C	0.8202	0.203051	0.675617
396	N	0.793512	0.149082	0.675549
397	C	0.792382	0.23087	0.008516
398	C	0.777848	0.245402	0.716127
399	C	0.75017	0.27308	0.71574
400	C	0.735521	0.287727	0.008282
401	C	0.749971	0.27328	0.967079
402	C	0.778038	0.245212	0.967181
403	H	0.787924	0.23533	0.93681
404	H	0.740165	0.283086	0.936637
405	N	0.742185	0.281063	0.75883
406	O	0.787632	0.23562	0.759237
407	C	0.76452	0.25873	0.783691
408	H	0.764286	0.258963	0.81836
409	C	0.792381	0.066164	0.008516
410	C	0.777848	0.037097	0.716127
411	C	0.750168	0.481738	0.71574
412	C	0.735522	0.452445	0.008282
413	C	0.74997	0.481341	0.967079
414	C	0.778039	0.03748	0.967181
415	H	0.787921	0.057244	0.93681
416	H	0.740164	0.461729	0.936633
417	N	0.742186	0.465774	0.75883
418	O	0.78763	0.056662	0.759237
419	C	0.764519	0.010439	0.783691
420	H	0.764286	0.009973	0.81836
421	C	0.957087	0.230868	0.008516
422	C	0.986154	0.245401	0.716127
423	C	0.54151	0.273081	0.71574
424	C	0.570806	0.287729	0.008282
425	C	0.541909	0.27328	0.967079
426	C	0.98577	0.245211	0.967181
427	H	0.966007	0.235329	0.93681
428	H	0.561521	0.283087	0.936633
429	N	0.557478	0.281065	0.75883
430	O	0.966588	0.235618	0.759237
431	C	0.012811	0.25873	0.783691
432	H	0.013275	0.258963	0.81836
433	C	0.707697	0.896796	0.008614
434	N	0.653729	0.86952	0.00856
435	C	0.626452	0.815554	0.008614
436	N	0.653729	0.788861	0.00856
437	C	0.707696	0.81555	0.008614
438	N	0.734388	0.86952	0.00856
439	C	0.820199	0.6218	0.008954
440	N	0.874167	0.649081	0.008883
441	C	0.901448	0.70305	0.008951
442	N	0.874168	0.729739	0.008883
443	C	0.8202	0.70305	0.008951
444	N	0.793511	0.649081	0.008883
445	C	0.792383	0.730871	0.341849
446	C	0.777848	0.745402	0.049461
447	C	0.750166	0.773079	0.049072
448	C	0.73552	0.787726	0.341618
449	C	0.74997	0.773278	0.300412
450	C	0.778038	0.745211	0.300515
451	H	0.787919	0.735328	0.270142
452	H	0.740161	0.783086	0.269969
453	N	0.742184	0.781062	0.092163
454	O	0.787633	0.735622	0.092571
455	C	0.76452	0.758731	0.117023
456	H	0.764287	0.758965	0.151693
457	C	0.792381	0.566163	0.341849
458	C	0.777847	0.537097	0.049461
459	C	0.750168	0.981738	0.049072
460	C	0.735522	0.952445	0.341615
461	C	0.749969	0.981341	0.300412
462	C	0.77804	0.537482	0.300515
463	H	0.787921	0.557244	0.270143
464	H	0.740163	0.961729	0.269968
465	N	0.742185	0.965774	0.092163
466	O	0.78763	0.556661	0.092572
467	C	0.764519	0.510439	0.117024
468	H	0.764287	0.509975	0.151693
469	C	0.957083	0.730867	0.341849
470	C	0.986151	0.745402	0.049461
471	C	0.541511	0.773083	0.049072
472	C	0.570805	0.78773	0.341618
473	C	0.541909	0.773282	0.300412
474	C	0.985771	0.745211	0.300515
475	H	0.966007	0.735328	0.270142
476	H	0.561521	0.783086	0.269969
477	N	0.557476	0.781066	0.092164
478	O	0.966588	0.735618	0.092571
479	C	0.012808	0.758731	0.117023
480	H	0.013275	0.758965	0.151693
481	C	0.707697	0.896796	0.341947
482	N	0.653729	0.86952	0.341893
483	C	0.626452	0.815554	0.341947
484	N	0.653729	0.788861	0.341897
485	C	0.707696	0.81555	0.341947
486	N	0.734388	0.86952	0.341893
487	C	0.820199	0.6218	0.342287
488	N	0.874167	0.649081	0.342216
489	C	0.901448	0.70305	0.342284
490	N	0.874168	0.729739	0.342216
491	C	0.8202	0.70305	0.342284
492	N	0.793511	0.649081	0.342216
493	C	0.792383	0.730871	0.675183
494	C	0.777848	0.745402	0.382793
495	C	0.750166	0.773079	0.382406
496	C	0.73552	0.787726	0.674948
497	C	0.74997	0.773278	0.633746
498	C	0.778038	0.745211	0.633848
499	H	0.787919	0.735328	0.603476
500	H	0.740161	0.783086	0.603303
501	N	0.742184	0.781062	0.425496
502	O	0.787633	0.735622	0.425904
503	C	0.76452	0.758731	0.450357
504	H	0.764287	0.758965	0.485027
505	C	0.792381	0.566163	0.675183
506	C	0.777847	0.537097	0.382793
507	C	0.750168	0.981738	0.382406
508	C	0.735522	0.952445	0.674948
509	C	0.749969	0.981341	0.633746
510	C	0.77804	0.537482	0.633848
511	H	0.787921	0.557244	0.603476
512	H	0.740163	0.961729	0.6033
513	N	0.742185	0.965774	0.425496
514	O	0.78763	0.556661	0.425904
515	C	0.764519	0.510439	0.450357
516	H	0.764287	0.509975	0.485027
517	C	0.957083	0.730867	0.675183
518	C	0.986151	0.745402	0.382793
519	C	0.541511	0.773083	0.382406
520	C	0.570805	0.78773	0.674948
521	C	0.541909	0.773282	0.633746
522	C	0.985771	0.745211	0.633848
523	H	0.966007	0.735328	0.603476
524	H	0.561521	0.783086	0.603303
525	N	0.557476	0.781066	0.425496
526	O	0.966588	0.735618	0.425904
527	C	0.012808	0.758731	0.450357
528	H	0.013275	0.758965	0.485027
529	C	0.707697	0.896796	0.675281
530	N	0.653729	0.86952	0.675227
531	C	0.626452	0.815554	0.675281
532	N	0.653729	0.788861	0.67523
533	C	0.707696	0.81555	0.675281
534	N	0.734388	0.86952	0.675227
535	C	0.820199	0.6218	0.675621
536	N	0.874167	0.649081	0.675549
537	C	0.901448	0.70305	0.675617
538	N	0.874168	0.729739	0.675549
539	C	0.8202	0.70305	0.675617
540	N	0.793511	0.649081	0.675549
541	C	0.792383	0.730871	0.008516
542	C	0.777848	0.745402	0.716127
543	C	0.750166	0.773079	0.71574
544	C	0.73552	0.787726	0.008282
545	C	0.74997	0.773278	0.967079
546	C	0.778038	0.745211	0.967181
547	H	0.787919	0.735328	0.93681
548	H	0.740161	0.783086	0.936637
549	N	0.742184	0.781062	0.75883
550	O	0.787633	0.735622	0.759237
551	C	0.76452	0.758731	0.783691
552	H	0.764287	0.758965	0.81836
553	C	0.792381	0.566163	0.008516
554	C	0.777847	0.537097	0.716127
555	C	0.750168	0.981738	0.71574
556	C	0.735522	0.952445	0.008282
557	C	0.749969	0.981341	0.967079
558	C	0.77804	0.537482	0.967181
559	H	0.787921	0.557244	0.93681
560	H	0.740163	0.961729	0.936633
561	N	0.742185	0.965774	0.75883
562	O	0.78763	0.556661	0.759237
563	C	0.764519	0.510439	0.783691
564	H	0.764287	0.509975	0.81836
565	C	0.957083	0.730867	0.008516
566	C	0.986151	0.745402	0.716127
567	C	0.541511	0.773083	0.71574
568	C	0.570805	0.78773	0.008282
569	C	0.541909	0.773282	0.967079
570	C	0.985771	0.745211	0.967181
571	H	0.966007	0.735328	0.93681
572	H	0.561521	0.783086	0.936633
573	N	0.557476	0.781066	0.75883
574	O	0.966588	0.735618	0.759237
575	C	0.012808	0.758731	0.783691
576	H	0.013275	0.758965	0.81836
