data_C360H144N72O144_2018-02-15_10:38:43
#******************************************
#
# CIF file created by Zeo++
# Zeo++ is an open source package to
# analyze microporous materials
#
#*******************************************

_cell_length_a		29.6218   
_cell_length_b		29.6218   
_cell_length_c		29.6538   
_cell_angle_alpha		90   
_cell_angle_beta		90   
_cell_angle_gamma		120   

_symmetry_space_group_name_H-M		'P1'
_symmetry_Int_Tables_number		1
_symmetry_cell_setting		Monoclinic

loop_
_symmetry_equiv_pos_as_xyz
'+x,+y,+z'

loop_
_atom_site_label
_atom_site_type_symbol
_atom_site_fract_x
_atom_site_fract_y
_atom_site_fract_z
1	C	0.036139	0.269265	0.303773
2	C	0.064628	0.283932	0.011196
3	C	0.036483	0.270332	0.052679
4	H	0.055266	0.278745	0.273413
5	N	0.061055	0.284701	0.095462
6	O	0.084918	0.333102	0.101252
7	C	0.036139	0.269265	0.637106
8	C	0.064628	0.283932	0.344529
9	C	0.036483	0.270332	0.386011
10	H	0.055266	0.278745	0.606745
11	N	0.061055	0.284701	0.428795
12	O	0.084918	0.333102	0.434585
13	C	0.036139	0.269265	0.970439
14	C	0.064628	0.283932	0.677863
15	C	0.036483	0.270332	0.719345
16	H	0.055266	0.278745	0.940079
17	N	0.061055	0.284701	0.762128
18	O	0.084918	0.333102	0.767919
19	C	0.036163	0.769232	0.303782
20	C	0.064642	0.783932	0.01121
21	C	0.036489	0.770362	0.052687
22	H	0.055297	0.778693	0.273425
23	N	0.06105	0.784774	0.095472
24	O	0.084878	0.833177	0.101236
25	C	0.036163	0.769232	0.637116
26	C	0.064642	0.783932	0.344543
27	C	0.036489	0.770362	0.386021
28	H	0.055297	0.778693	0.606759
29	N	0.06105	0.784774	0.428805
30	O	0.084878	0.833177	0.434568
31	C	0.036163	0.769232	0.970449
32	C	0.064642	0.783932	0.677876
33	C	0.036489	0.770362	0.719355
34	H	0.055297	0.778693	0.940092
35	N	0.06105	0.784774	0.762138
36	O	0.084878	0.833177	0.767902
37	C	0.11983	0.31153	0.009351
38	H	0.128264	0.244691	0.007864
39	H	0.127823	0.386571	0.011864
40	O	0.090793	0.266841	0.102923
41	C	0.11983	0.31153	0.342685
42	H	0.128264	0.244691	0.341197
43	H	0.127823	0.386571	0.345197
44	O	0.090793	0.266841	0.436254
45	C	0.11983	0.31153	0.676018
46	H	0.128264	0.244691	0.674531
47	H	0.127823	0.386571	0.67853
48	O	0.090793	0.266841	0.769588
49	C	0.119845	0.811531	0.009373
50	H	0.128282	0.744693	0.007906
51	H	0.127836	0.88657	0.011868
52	O	0.090815	0.766952	0.102966
53	C	0.119845	0.811531	0.342705
54	H	0.128282	0.744693	0.341238
55	H	0.127836	0.88657	0.3452
56	O	0.090815	0.766952	0.436298
57	C	0.119845	0.811531	0.676038
58	H	0.128282	0.744693	0.674571
59	H	0.127836	0.88657	0.678534
60	O	0.090815	0.766952	0.769632
61	C	0.147862	0.366678	0.010562
62	C	0.148165	0.284641	0.007855
63	C	0.147862	0.366678	0.343895
64	C	0.148165	0.284641	0.341187
65	C	0.147862	0.366678	0.677229
66	C	0.148165	0.284641	0.674521
67	C	0.147875	0.866678	0.010567
68	C	0.148181	0.784641	0.007885
69	C	0.147875	0.866678	0.343899
70	C	0.148181	0.784641	0.341218
71	C	0.147875	0.866678	0.677232
72	C	0.148181	0.784641	0.674551
73	C	0.20302	0.39489	0.010631
74	C	0.230247	0.36693	0.009336
75	C	0.203421	0.311751	0.008216
76	H	0.270196	0.387027	0.010012
77	C	0.397619	0.200116	0.009427
78	C	0.369575	0.14497	0.01071
79	C	0.314415	0.116761	0.010646
80	C	0.287198	0.144725	0.009164
81	C	0.314036	0.199905	0.008106
82	C	0.369292	0.22701	0.007845
83	H	0.247249	0.124635	0.009815
84	H	0.389197	0.26696	0.007853
85	H	0.389607	0.125072	0.012076
86	C	0.286263	0.227386	0.009809
87	C	0.272495	0.242169	0.302406
88	C	0.244901	0.26948	0.302437
89	C	0.231198	0.284272	0.009869
90	C	0.245521	0.270331	0.051301
91	H	0.235319	0.279061	0.272099
92	H	0.282037	0.23259	0.272048
93	C	0.271977	0.241304	0.051272
94	N	0.235279	0.28458	0.094123
95	N	0.282222	0.226996	0.094068
96	O	0.18764	0.266331	0.101665
97	O	0.258022	0.178578	0.099836
98	O	0.259515	0.332988	0.099944
99	O	0.329863	0.245269	0.101607
100	C	0.28698	0.061626	0.012617
101	C	0.27215	0.033248	0.305154
102	C	0.244831	0.478423	0.305163
103	C	0.230439	0.450025	0.012619
104	C	0.244485	0.478084	0.054137
105	H	0.235135	0.459287	0.274803
106	H	0.281594	0.052401	0.274801
107	C	0.273222	0.033548	0.054124
108	N	0.230708	0.453424	0.09691
109	N	0.287151	0.058184	0.096902
110	O	0.249432	0.424363	0.104021
111	O	0.335527	0.082872	0.102806
112	O	0.182345	0.428667	0.10292
113	O	0.268504	0.087293	0.104136
114	C	0.452824	0.227709	0.011239
115	C	0.481272	0.242317	0.303793
116	H	0.462115	0.232774	0.273447
117	C	0.481009	0.2414	0.052701
118	N	0.456477	0.227196	0.095506
119	O	0.432494	0.178812	0.101402
120	O	0.426856	0.245208	0.102904
121	C	0.20302	0.39489	0.343966
122	C	0.230247	0.36693	0.342671
123	C	0.203421	0.311751	0.341548
124	H	0.270196	0.387027	0.343346
125	C	0.397619	0.200116	0.342759
126	C	0.369575	0.14497	0.344044
127	C	0.314415	0.116761	0.34398
128	C	0.287198	0.144725	0.342496
129	C	0.314036	0.199905	0.34144
130	C	0.369292	0.22701	0.341177
131	H	0.247249	0.124635	0.34315
132	H	0.389197	0.26696	0.341187
133	H	0.389607	0.125072	0.345409
134	C	0.286263	0.227386	0.343143
135	C	0.272495	0.242169	0.63574
136	C	0.244901	0.26948	0.63577
137	C	0.231198	0.284272	0.343204
138	C	0.245521	0.270331	0.384635
139	H	0.235319	0.279061	0.605433
140	H	0.282037	0.23259	0.605383
141	C	0.271977	0.241304	0.384605
142	N	0.235279	0.28458	0.427456
143	N	0.282222	0.226996	0.427402
144	O	0.18764	0.266331	0.435
145	O	0.258022	0.178578	0.433169
146	O	0.259515	0.332988	0.433277
147	O	0.329863	0.245269	0.434939
148	C	0.28698	0.061626	0.345952
149	C	0.27215	0.033248	0.638488
150	C	0.244831	0.478423	0.638495
151	C	0.230439	0.450025	0.345952
152	C	0.244485	0.478084	0.387471
153	H	0.235135	0.459287	0.608135
154	H	0.281594	0.052401	0.608135
155	C	0.273222	0.033548	0.387458
156	N	0.230708	0.453424	0.430245
157	N	0.287151	0.058184	0.430235
158	O	0.249432	0.424363	0.437354
159	O	0.335527	0.082872	0.43614
160	O	0.182345	0.428667	0.436254
161	O	0.268504	0.087293	0.437468
162	C	0.452824	0.227709	0.344573
163	C	0.481272	0.242317	0.637126
164	H	0.462115	0.232774	0.606779
165	C	0.481009	0.2414	0.386035
166	N	0.456477	0.227196	0.428839
167	O	0.432494	0.178812	0.434734
168	O	0.426856	0.245208	0.436238
169	C	0.20302	0.39489	0.677299
170	C	0.230247	0.36693	0.676004
171	C	0.203421	0.311751	0.674882
172	H	0.270196	0.387027	0.676679
173	C	0.397619	0.200116	0.676092
174	C	0.369575	0.14497	0.677377
175	C	0.314415	0.116761	0.677313
176	C	0.287198	0.144725	0.675829
177	C	0.314036	0.199905	0.674774
178	C	0.369292	0.22701	0.674511
179	H	0.247249	0.124635	0.67648
180	H	0.389197	0.26696	0.674521
181	H	0.389607	0.125072	0.678743
182	C	0.286263	0.227386	0.676477
183	C	0.272495	0.242169	0.969073
184	C	0.244901	0.26948	0.969104
185	C	0.231198	0.284272	0.676537
186	C	0.245521	0.270331	0.717969
187	H	0.235319	0.279061	0.938767
188	H	0.282037	0.23259	0.938716
189	C	0.271977	0.241304	0.717938
190	N	0.235279	0.28458	0.76079
191	N	0.282222	0.226996	0.760736
192	O	0.18764	0.266331	0.768333
193	O	0.258022	0.178578	0.766502
194	O	0.259515	0.332988	0.76661
195	O	0.329863	0.245269	0.768273
196	C	0.28698	0.061626	0.679282
197	C	0.27215	0.033248	0.971822
198	C	0.244831	0.478423	0.971828
199	C	0.230439	0.450025	0.679286
200	C	0.244485	0.478084	0.720805
201	H	0.235135	0.459287	0.941468
202	H	0.281594	0.052401	0.941468
203	C	0.273222	0.033548	0.720791
204	N	0.230708	0.453424	0.763578
205	N	0.287151	0.058184	0.763568
206	O	0.249432	0.424363	0.770687
207	O	0.335527	0.082872	0.769473
208	O	0.182345	0.428667	0.769588
209	O	0.268504	0.087293	0.770802
210	C	0.452824	0.227709	0.677906
211	C	0.481272	0.242317	0.970459
212	H	0.462115	0.232774	0.940112
213	C	0.481009	0.2414	0.719368
214	N	0.456477	0.227196	0.762172
215	O	0.432494	0.178812	0.768067
216	O	0.426856	0.245208	0.769571
217	C	0.203034	0.894892	0.010612
218	C	0.230263	0.866935	0.009304
219	C	0.203439	0.811757	0.008216
220	H	0.270212	0.887034	0.009967
221	C	0.397634	0.700114	0.009413
222	C	0.369587	0.644967	0.010709
223	C	0.314426	0.61676	0.010665
224	C	0.287214	0.644729	0.009197
225	C	0.314053	0.699907	0.008111
226	C	0.369311	0.727011	0.007825
227	H	0.247265	0.624642	0.009859
228	H	0.389218	0.766959	0.007823
229	H	0.389617	0.625067	0.012075
230	C	0.286288	0.727397	0.009813
231	C	0.272624	0.742284	0.302411
232	C	0.24503	0.769594	0.302439
233	C	0.231221	0.784283	0.009871
234	C	0.245474	0.770273	0.051304
235	H	0.235509	0.779235	0.2721
236	H	0.282227	0.732765	0.272053
237	C	0.271931	0.741247	0.051274
238	N	0.235197	0.784489	0.094127
239	N	0.282141	0.726906	0.094069
240	O	0.187552	0.76623	0.101644
241	O	0.257931	0.678483	0.099812
242	O	0.259424	0.832893	0.099974
243	O	0.329776	0.745169	0.101635
244	C	0.286987	0.561625	0.012638
245	C	0.272152	0.533246	0.305174
246	C	0.244839	0.978426	0.305142
247	C	0.230449	0.950024	0.012599
248	C	0.244492	0.978083	0.054117
249	H	0.235143	0.959286	0.274782
250	H	0.281597	0.552398	0.274821
251	C	0.273226	0.533546	0.054144
252	N	0.230731	0.953423	0.096891
253	N	0.287171	0.558183	0.096921
254	O	0.249467	0.92437	0.103992
255	O	0.335549	0.582862	0.102815
256	O	0.18237	0.928654	0.102911
257	O	0.268535	0.587298	0.104164
258	C	0.452836	0.727701	0.011234
259	C	0.481297	0.742284	0.303793
260	H	0.462146	0.732718	0.273443
261	C	0.481014	0.741423	0.0527
262	N	0.456471	0.727241	0.095503
263	O	0.432481	0.678861	0.101416
264	O	0.426855	0.745262	0.102877
265	C	0.203034	0.894892	0.343946
266	C	0.230263	0.866935	0.342637
267	C	0.203439	0.811757	0.341548
268	H	0.270212	0.887034	0.343302
269	C	0.397634	0.700114	0.342745
270	C	0.369587	0.644967	0.344044
271	C	0.314426	0.61676	0.344
272	C	0.287214	0.644729	0.342529
273	C	0.314053	0.699907	0.341444
274	C	0.369311	0.727011	0.341157
275	H	0.247265	0.624642	0.34319
276	H	0.389218	0.766959	0.341157
277	H	0.389617	0.625067	0.345409
278	C	0.286288	0.727397	0.343147
279	C	0.272624	0.742284	0.635743
280	C	0.24503	0.769594	0.635774
281	C	0.231221	0.784283	0.343204
282	C	0.245474	0.770273	0.384639
283	H	0.235509	0.779235	0.605433
284	H	0.282227	0.732765	0.605386
285	C	0.271931	0.741247	0.384608
286	N	0.235197	0.784489	0.42746
287	N	0.282141	0.726906	0.427402
288	O	0.187552	0.76623	0.434976
289	O	0.257931	0.678483	0.433145
290	O	0.259424	0.832893	0.433307
291	O	0.329776	0.745169	0.434966
292	C	0.286987	0.561625	0.345973
293	C	0.272152	0.533246	0.638508
294	C	0.244839	0.978426	0.638475
295	C	0.230449	0.950024	0.345932
296	C	0.244492	0.978083	0.387451
297	H	0.235143	0.959286	0.608114
298	H	0.281597	0.552398	0.608155
299	C	0.273226	0.533546	0.387478
300	N	0.230731	0.953423	0.430225
301	N	0.287171	0.558183	0.430255
302	O	0.249467	0.92437	0.437327
303	O	0.335549	0.582862	0.43615
304	O	0.18237	0.928654	0.436244
305	O	0.268535	0.587298	0.437495
306	C	0.452836	0.727701	0.344566
307	C	0.481297	0.742284	0.637126
308	H	0.462146	0.732718	0.606776
309	C	0.481014	0.741423	0.386035
310	N	0.456471	0.727241	0.428835
311	O	0.432481	0.678861	0.43475
312	O	0.426855	0.745262	0.436211
313	C	0.203034	0.894892	0.677279
314	C	0.230263	0.866935	0.675971
315	C	0.203439	0.811757	0.674882
316	H	0.270212	0.887034	0.676632
317	C	0.397634	0.700114	0.676079
318	C	0.369587	0.644967	0.677377
319	C	0.314426	0.61676	0.677333
320	C	0.287214	0.644729	0.675863
321	C	0.314053	0.699907	0.674777
322	C	0.369311	0.727011	0.67449
323	H	0.247265	0.624642	0.676524
324	H	0.389218	0.766959	0.67449
325	H	0.389617	0.625067	0.678743
326	C	0.286288	0.727397	0.67648
327	C	0.272624	0.742284	0.969077
328	C	0.24503	0.769594	0.969107
329	C	0.231221	0.784283	0.676537
330	C	0.245474	0.770273	0.717972
331	H	0.235509	0.779235	0.938767
332	H	0.282227	0.732765	0.93872
333	C	0.271931	0.741247	0.717942
334	N	0.235197	0.784489	0.760793
335	N	0.282141	0.726906	0.760736
336	O	0.187552	0.76623	0.76831
337	O	0.257931	0.678483	0.766479
338	O	0.259424	0.832893	0.76664
339	O	0.329776	0.745169	0.7683
340	C	0.286987	0.561625	0.679303
341	C	0.272152	0.533246	0.971842
342	C	0.244839	0.978426	0.971808
343	C	0.230449	0.950024	0.679265
344	C	0.244492	0.978083	0.720785
345	H	0.235143	0.959286	0.941448
346	H	0.281597	0.552398	0.941488
347	C	0.273226	0.533546	0.720812
348	N	0.230731	0.953423	0.763558
349	N	0.287171	0.558183	0.763589
350	O	0.249467	0.92437	0.77066
351	O	0.335549	0.582862	0.769483
352	O	0.18237	0.928654	0.769578
353	O	0.268535	0.587298	0.770829
354	C	0.452836	0.727701	0.6779
355	C	0.481297	0.742284	0.970459
356	H	0.462146	0.732718	0.940109
357	C	0.481014	0.741423	0.719368
358	N	0.456471	0.727241	0.762169
359	O	0.432481	0.678861	0.768084
360	O	0.426855	0.745262	0.769544
361	C	0.619829	0.31153	0.009351
362	C	0.647862	0.366678	0.010562
363	C	0.703018	0.39489	0.010631
364	C	0.730248	0.36693	0.009336
365	C	0.703422	0.311751	0.008216
366	C	0.648164	0.284641	0.007855
367	H	0.770197	0.387027	0.010012
368	H	0.628263	0.244691	0.007864
369	H	0.627824	0.386571	0.011864
370	C	0.897619	0.200116	0.009427
371	C	0.869574	0.14497	0.01071
372	C	0.814415	0.116761	0.010646
373	C	0.787197	0.144725	0.009164
374	C	0.814035	0.199905	0.008106
375	C	0.869293	0.22701	0.007845
376	H	0.747249	0.124635	0.009815
377	H	0.889197	0.26696	0.007853
378	H	0.889606	0.125072	0.012076
379	C	0.786262	0.227386	0.009809
380	C	0.772493	0.242169	0.302406
381	C	0.744902	0.26948	0.302437
382	C	0.731199	0.284272	0.009869
383	C	0.74552	0.270331	0.051301
384	H	0.735318	0.279061	0.272099
385	H	0.782035	0.23259	0.272048
386	C	0.771976	0.241304	0.051272
387	N	0.735279	0.28458	0.094123
388	N	0.782222	0.226996	0.094068
389	O	0.687639	0.266331	0.101665
390	O	0.758023	0.178578	0.099836
391	O	0.759513	0.332988	0.099944
392	O	0.829864	0.245269	0.101607
393	C	0.786979	0.061626	0.012617
394	C	0.772148	0.033248	0.305154
395	C	0.744832	0.478423	0.305163
396	C	0.730437	0.450025	0.012619
397	C	0.744484	0.478084	0.054137
398	H	0.735133	0.459287	0.274803
399	H	0.781593	0.052401	0.274801
400	C	0.77322	0.033548	0.054124
401	N	0.730706	0.453424	0.09691
402	N	0.787152	0.058184	0.096902
403	O	0.749431	0.424363	0.104021
404	O	0.835527	0.082872	0.102806
405	O	0.682344	0.428667	0.10292
406	O	0.768504	0.087293	0.104136
407	C	0.952821	0.227709	0.011239
408	C	0.981272	0.242317	0.303793
409	C	0.536137	0.269265	0.303773
410	C	0.564628	0.283932	0.011196
411	C	0.536482	0.270332	0.052679
412	H	0.555265	0.278745	0.273413
413	H	0.962115	0.232774	0.273447
414	C	0.981009	0.2414	0.052701
415	N	0.561056	0.284701	0.095462
416	N	0.956474	0.227196	0.095506
417	O	0.590793	0.266841	0.102923
418	O	0.932491	0.178812	0.101402
419	O	0.584919	0.333102	0.101252
420	O	0.926856	0.245208	0.102904
421	C	0.619829	0.31153	0.342685
422	C	0.647862	0.366678	0.343895
423	C	0.703018	0.39489	0.343966
424	C	0.730248	0.36693	0.342671
425	C	0.703422	0.311751	0.341548
426	C	0.648164	0.284641	0.341187
427	H	0.770197	0.387027	0.343346
428	H	0.628263	0.244691	0.341197
429	H	0.627824	0.386571	0.345197
430	C	0.897619	0.200116	0.342759
431	C	0.869574	0.14497	0.344044
432	C	0.814415	0.116761	0.34398
433	C	0.787197	0.144725	0.342496
434	C	0.814035	0.199905	0.34144
435	C	0.869293	0.22701	0.341177
436	H	0.747249	0.124635	0.34315
437	H	0.889197	0.26696	0.341187
438	H	0.889606	0.125072	0.345409
439	C	0.786262	0.227386	0.343143
440	C	0.772493	0.242169	0.63574
441	C	0.744902	0.26948	0.63577
442	C	0.731199	0.284272	0.343204
443	C	0.74552	0.270331	0.384635
444	H	0.735318	0.279061	0.605433
445	H	0.782035	0.23259	0.605383
446	C	0.771976	0.241304	0.384605
447	N	0.735279	0.28458	0.427456
448	N	0.782222	0.226996	0.427402
449	O	0.687639	0.266331	0.435
450	O	0.758023	0.178578	0.433169
451	O	0.759513	0.332988	0.433277
452	O	0.829864	0.245269	0.434939
453	C	0.786979	0.061626	0.345952
454	C	0.772148	0.033248	0.638488
455	C	0.744832	0.478423	0.638495
456	C	0.730437	0.450025	0.345952
457	C	0.744484	0.478084	0.387471
458	H	0.735133	0.459287	0.608135
459	H	0.781593	0.052401	0.608135
460	C	0.77322	0.033548	0.387458
461	N	0.730706	0.453424	0.430245
462	N	0.787152	0.058184	0.430235
463	O	0.749431	0.424363	0.437354
464	O	0.835527	0.082872	0.43614
465	O	0.682344	0.428667	0.436254
466	O	0.768504	0.087293	0.437468
467	C	0.952821	0.227709	0.344573
468	C	0.981272	0.242317	0.637126
469	C	0.536137	0.269265	0.637106
470	C	0.564628	0.283932	0.344529
471	C	0.536482	0.270332	0.386011
472	H	0.555265	0.278745	0.606745
473	H	0.962115	0.232774	0.606779
474	C	0.981009	0.2414	0.386035
475	N	0.561056	0.284701	0.428795
476	N	0.956474	0.227196	0.428839
477	O	0.590793	0.266841	0.436254
478	O	0.932491	0.178812	0.434734
479	O	0.584919	0.333102	0.434585
480	O	0.926856	0.245208	0.436238
481	C	0.619829	0.31153	0.676018
482	C	0.647862	0.366678	0.677229
483	C	0.703018	0.39489	0.677299
484	C	0.730248	0.36693	0.676004
485	C	0.703422	0.311751	0.674882
486	C	0.648164	0.284641	0.674521
487	H	0.770197	0.387027	0.676679
488	H	0.628263	0.244691	0.674531
489	H	0.627824	0.386571	0.67853
490	C	0.897619	0.200116	0.676092
491	C	0.869574	0.14497	0.677377
492	C	0.814415	0.116761	0.677313
493	C	0.787197	0.144725	0.675829
494	C	0.814035	0.199905	0.674774
495	C	0.869293	0.22701	0.674511
496	H	0.747249	0.124635	0.67648
497	H	0.889197	0.26696	0.674521
498	H	0.889606	0.125072	0.678743
499	C	0.786262	0.227386	0.676477
500	C	0.772493	0.242169	0.969073
501	C	0.744902	0.26948	0.969104
502	C	0.731199	0.284272	0.676537
503	C	0.74552	0.270331	0.717969
504	H	0.735318	0.279061	0.938767
505	H	0.782035	0.23259	0.938716
506	C	0.771976	0.241304	0.717938
507	N	0.735279	0.28458	0.76079
508	N	0.782222	0.226996	0.760736
509	O	0.687639	0.266331	0.768333
510	O	0.758023	0.178578	0.766502
511	O	0.759513	0.332988	0.76661
512	O	0.829864	0.245269	0.768273
513	C	0.786979	0.061626	0.679282
514	C	0.772148	0.033248	0.971822
515	C	0.744832	0.478423	0.971828
516	C	0.730437	0.450025	0.679286
517	C	0.744484	0.478084	0.720805
518	H	0.735133	0.459287	0.941468
519	H	0.781593	0.052401	0.941468
520	C	0.77322	0.033548	0.720791
521	N	0.730706	0.453424	0.763578
522	N	0.787152	0.058184	0.763568
523	O	0.749431	0.424363	0.770687
524	O	0.835527	0.082872	0.769473
525	O	0.682344	0.428667	0.769588
526	O	0.768504	0.087293	0.770802
527	C	0.952821	0.227709	0.677906
528	C	0.981272	0.242317	0.970459
529	C	0.536137	0.269265	0.970439
530	C	0.564628	0.283932	0.677863
531	C	0.536482	0.270332	0.719345
532	H	0.555265	0.278745	0.940079
533	H	0.962115	0.232774	0.940112
534	C	0.981009	0.2414	0.719368
535	N	0.561056	0.284701	0.762128
536	N	0.956474	0.227196	0.762172
537	O	0.590793	0.266841	0.769588
538	O	0.932491	0.178812	0.768067
539	O	0.584919	0.333102	0.767919
540	O	0.926856	0.245208	0.769571
541	C	0.619845	0.811531	0.009373
542	C	0.647875	0.866678	0.010567
543	C	0.703033	0.894892	0.010612
544	C	0.730263	0.866935	0.009304
545	C	0.703438	0.811757	0.008216
546	C	0.648181	0.784641	0.007885
547	H	0.770212	0.887034	0.009967
548	H	0.628282	0.744693	0.007906
549	H	0.627835	0.88657	0.011868
550	C	0.897633	0.700114	0.009413
551	C	0.869587	0.644967	0.010709
552	C	0.814426	0.61676	0.010665
553	C	0.787215	0.644729	0.009197
554	C	0.814051	0.699907	0.008111
555	C	0.869312	0.727011	0.007825
556	H	0.747264	0.624642	0.009859
557	H	0.889219	0.766959	0.007823
558	H	0.889615	0.625067	0.012075
559	C	0.786286	0.727397	0.009813
560	C	0.772623	0.742284	0.302411
561	C	0.745029	0.769594	0.302439
562	C	0.731219	0.784283	0.009871
563	C	0.745472	0.770273	0.051304
564	H	0.735508	0.779235	0.2721
565	H	0.782228	0.732765	0.272053
566	C	0.771929	0.741247	0.051274
567	N	0.735198	0.784489	0.094127
568	N	0.782141	0.726906	0.094069
569	O	0.687552	0.76623	0.101644
570	O	0.75793	0.678483	0.099812
571	O	0.759423	0.832893	0.099974
572	O	0.829775	0.745169	0.101635
573	C	0.786987	0.561625	0.012638
574	C	0.772153	0.533246	0.305174
575	C	0.744839	0.978426	0.305142
576	C	0.730448	0.950024	0.012599
577	C	0.744491	0.978083	0.054117
578	H	0.735143	0.959286	0.274782
579	H	0.781597	0.552398	0.274821
580	C	0.773225	0.533546	0.054144
581	N	0.73073	0.953423	0.096891
582	N	0.78717	0.558183	0.096921
583	O	0.749467	0.92437	0.103992
584	O	0.835547	0.582862	0.102815
585	O	0.68237	0.928654	0.102911
586	O	0.768536	0.587298	0.104164
587	C	0.952836	0.727701	0.011234
588	C	0.981297	0.742284	0.303793
589	C	0.536162	0.769232	0.303782
590	C	0.564642	0.783932	0.01121
591	C	0.536488	0.770362	0.052687
592	H	0.555296	0.778693	0.273425
593	H	0.962147	0.732718	0.273443
594	C	0.981012	0.741423	0.0527
595	N	0.56105	0.784774	0.095472
596	N	0.956471	0.727241	0.095503
597	O	0.590814	0.766952	0.102966
598	O	0.93248	0.678861	0.101416
599	O	0.584878	0.833177	0.101236
600	O	0.926855	0.745262	0.102877
601	C	0.619845	0.811531	0.342705
602	C	0.647875	0.866678	0.343899
603	C	0.703033	0.894892	0.343946
604	C	0.730263	0.866935	0.342637
605	C	0.703438	0.811757	0.341548
606	C	0.648181	0.784641	0.341218
607	H	0.770212	0.887034	0.343302
608	H	0.628282	0.744693	0.341238
609	H	0.627835	0.88657	0.3452
610	C	0.897633	0.700114	0.342745
611	C	0.869587	0.644967	0.344044
612	C	0.814426	0.61676	0.344
613	C	0.787215	0.644729	0.342529
614	C	0.814051	0.699907	0.341444
615	C	0.869312	0.727011	0.341157
616	H	0.747264	0.624642	0.34319
617	H	0.889219	0.766959	0.341157
618	H	0.889615	0.625067	0.345409
619	C	0.786286	0.727397	0.343147
620	C	0.772623	0.742284	0.635743
621	C	0.745029	0.769594	0.635774
622	C	0.731219	0.784283	0.343204
623	C	0.745472	0.770273	0.384639
624	H	0.735508	0.779235	0.605433
625	H	0.782228	0.732765	0.605386
626	C	0.771929	0.741247	0.384608
627	N	0.735198	0.784489	0.42746
628	N	0.782141	0.726906	0.427402
629	O	0.687552	0.76623	0.434976
630	O	0.75793	0.678483	0.433145
631	O	0.759423	0.832893	0.433307
632	O	0.829775	0.745169	0.434966
633	C	0.786987	0.561625	0.345973
634	C	0.772153	0.533246	0.638508
635	C	0.744839	0.978426	0.638475
636	C	0.730448	0.950024	0.345932
637	C	0.744491	0.978083	0.387451
638	H	0.735143	0.959286	0.608114
639	H	0.781597	0.552398	0.608155
640	C	0.773225	0.533546	0.387478
641	N	0.73073	0.953423	0.430225
642	N	0.78717	0.558183	0.430255
643	O	0.749467	0.92437	0.437327
644	O	0.835547	0.582862	0.43615
645	O	0.68237	0.928654	0.436244
646	O	0.768536	0.587298	0.437495
647	C	0.952836	0.727701	0.344566
648	C	0.981297	0.742284	0.637126
649	C	0.536162	0.769232	0.637116
650	C	0.564642	0.783932	0.344543
651	C	0.536488	0.770362	0.386021
652	H	0.555296	0.778693	0.606759
653	H	0.962147	0.732718	0.606776
654	C	0.981012	0.741423	0.386035
655	N	0.56105	0.784774	0.428805
656	N	0.956471	0.727241	0.428835
657	O	0.590814	0.766952	0.436298
658	O	0.93248	0.678861	0.43475
659	O	0.584878	0.833177	0.434568
660	O	0.926855	0.745262	0.436211
661	C	0.619845	0.811531	0.676038
662	C	0.647875	0.866678	0.677232
663	C	0.703033	0.894892	0.677279
664	C	0.730263	0.866935	0.675971
665	C	0.703438	0.811757	0.674882
666	C	0.648181	0.784641	0.674551
667	H	0.770212	0.887034	0.676632
668	H	0.628282	0.744693	0.674571
669	H	0.627835	0.88657	0.678534
670	C	0.897633	0.700114	0.676079
671	C	0.869587	0.644967	0.677377
672	C	0.814426	0.61676	0.677333
673	C	0.787215	0.644729	0.675863
674	C	0.814051	0.699907	0.674777
675	C	0.869312	0.727011	0.67449
676	H	0.747264	0.624642	0.676524
677	H	0.889219	0.766959	0.67449
678	H	0.889615	0.625067	0.678743
679	C	0.786286	0.727397	0.67648
680	C	0.772623	0.742284	0.969077
681	C	0.745029	0.769594	0.969107
682	C	0.731219	0.784283	0.676537
683	C	0.745472	0.770273	0.717972
684	H	0.735508	0.779235	0.938767
685	H	0.782228	0.732765	0.93872
686	C	0.771929	0.741247	0.717942
687	N	0.735198	0.784489	0.760793
688	N	0.782141	0.726906	0.760736
689	O	0.687552	0.76623	0.76831
690	O	0.75793	0.678483	0.766479
691	O	0.759423	0.832893	0.76664
692	O	0.829775	0.745169	0.7683
693	C	0.786987	0.561625	0.679303
694	C	0.772153	0.533246	0.971842
695	C	0.744839	0.978426	0.971808
696	C	0.730448	0.950024	0.679265
697	C	0.744491	0.978083	0.720785
698	H	0.735143	0.959286	0.941448
699	H	0.781597	0.552398	0.941488
700	C	0.773225	0.533546	0.720812
701	N	0.73073	0.953423	0.763558
702	N	0.78717	0.558183	0.763589
703	O	0.749467	0.92437	0.77066
704	O	0.835547	0.582862	0.769483
705	O	0.68237	0.928654	0.769578
706	O	0.768536	0.587298	0.770829
707	C	0.952836	0.727701	0.6779
708	C	0.981297	0.742284	0.970459
709	C	0.536162	0.769232	0.970449
710	C	0.564642	0.783932	0.677876
711	C	0.536488	0.770362	0.719355
712	H	0.555296	0.778693	0.940092
713	H	0.962147	0.732718	0.940109
714	C	0.981012	0.741423	0.719368
715	N	0.56105	0.784774	0.762138
716	N	0.956471	0.727241	0.762169
717	O	0.590814	0.766952	0.769632
718	O	0.93248	0.678861	0.768084
719	O	0.584878	0.833177	0.767902
720	O	0.926855	0.745262	0.769544
