data_C180H99N27O18_2018-02-15_10:42:20
#******************************************
#
# CIF file created by Zeo++
# Zeo++ is an open source package to
# analyze microporous materials
#
#*******************************************

_cell_length_a		29.5341   
_cell_length_b		29.5342   
_cell_length_c		29.956   
_cell_angle_alpha		90   
_cell_angle_beta		90   
_cell_angle_gamma		120   

_symmetry_space_group_name_H-M		'P1'
_symmetry_Int_Tables_number		1
_symmetry_cell_setting		Monoclinic

loop_
_symmetry_equiv_pos_as_xyz
'+x,+y,+z'

loop_
_atom_site_label
_atom_site_type_symbol
_atom_site_fract_x
_atom_site_fract_y
_atom_site_fract_z
1	C	0.360247	0.721344	0.000398
2	N	0.385486	0.693425	0.001253
3	C	0.359972	0.640253	0.001129
4	N	0.306831	0.615035	0.000398
5	C	0.279176	0.640534	0.99961
6	N	0.307083	0.693691	0.999597
7	C	0.387637	0.612142	0.001847
8	C	0.442481	0.638138	0.00853
9	C	0.469776	0.610422	0.009337
10	C	0.443212	0.555635	0.00332
11	C	0.388629	0.529452	0.996178
12	C	0.361341	0.557187	0.995721
13	C	0.388247	0.777131	0.000788
14	C	0.443066	0.805703	0.007686
15	C	0.470627	0.860713	0.00862
16	C	0.444373	0.889219	0.002505
17	C	0.389842	0.8611	0.995033
18	C	0.362284	0.806075	0.994442
19	C	0.223398	0.612744	0.99967
20	C	0.194676	0.638986	0.993661
21	C	0.139648	0.611657	0.994422
22	C	0.111348	0.557109	0.001771
23	C	0.139631	0.530558	0.007395
24	C	0.194623	0.557879	0.006268
25	H	0.51025	0.879831	0.013411
26	H	0.463778	0.786827	0.012476
27	H	0.369548	0.880496	0.990614
28	H	0.322795	0.787457	0.989118
29	H	0.213461	0.678525	0.988601
30	H	0.120396	0.632148	0.99039
31	H	0.213337	0.536978	0.010867
32	H	0.120363	0.490922	0.012116
33	H	0.321826	0.536497	0.990503
34	H	0.368129	0.48976	0.991809
35	H	0.509443	0.63076	0.013876
36	H	0.463419	0.677751	0.013114
37	C	0.639709	0.280247	0.000425
38	N	0.61413	0.307818	0.999096
39	C	0.639437	0.360971	0.999226
40	N	0.692573	0.38655	0.000451
41	C	0.720417	0.361268	0.001637
42	N	0.692859	0.308095	0.001802
43	C	0.611466	0.388715	0.998972
44	C	0.557625	0.363468	0.98795
45	C	0.52991	0.390787	0.9882
46	C	0.554816	0.444185	0.000281
47	C	0.608491	0.469532	0.011462
48	C	0.636374	0.442418	0.010437
49	C	0.611929	0.224518	0.000602
50	C	0.558224	0.195682	0.989128
51	C	0.530806	0.140656	0.989155
52	C	0.555862	0.112357	0.001391
53	C	0.609362	0.140918	0.01316
54	C	0.63696	0.195937	0.012391
55	C	0.776135	0.389389	0.002295
56	C	0.804935	0.364482	0.013711
57	C	0.859958	0.392276	0.014307
58	C	0.888272	0.445843	0.002717
59	C	0.859747	0.470806	0.990961
60	C	0.804729	0.443204	0.991158
61	H	0.491957	0.121406	0.980933
62	H	0.538348	0.214396	0.980145
63	H	0.629021	0.121844	0.021759
64	H	0.675602	0.214843	0.021221
65	H	0.786187	0.32574	0.022208
66	H	0.879221	0.372686	0.022524
67	H	0.785846	0.462971	0.982355
68	H	0.878833	0.509696	0.982876
69	H	0.675092	0.462408	0.019014
70	H	0.628035	0.508308	0.019938
71	H	0.490944	0.370924	0.980405
72	H	0.537844	0.324779	0.979274
73	C	0.526631	0.471674	0.001483
74	C	0.528493	0.50088	0.039534
75	C	0.500832	0.528584	0.041322
76	C	0.470877	0.527618	0.003841
77	C	0.468644	0.498022	0.299254
78	H	0.549427	0.501333	0.066949
79	C	0.495954	0.470388	0.298133
80	H	0.447712	0.497009	0.271641
81	H	0.494119	0.450183	0.269785
82	N	0.501213	0.555612	0.080507
83	O	0.546747	0.590701	0.090538
84	O	0.48193	0.524983	0.113082
85	C	0.527969	0.056652	0.002033
86	C	0.52956	0.02886	0.039865
87	C	0.50188	0.973469	0.041181
88	C	0.47225	0.944901	0.003414
89	C	0.470419	0.972706	0.298993
90	H	0.55014	0.04902	0.067523
91	C	0.497698	0.027661	0.298357
92	H	0.449683	0.953111	0.271199
93	H	0.496054	0.046348	0.270147
94	N	0.501875	0.946378	0.0802
95	O	0.54731	0.956688	0.090462
96	O	0.482293	0.957365	0.112774
97	C	0.943965	0.473848	0.002898
98	C	0.972206	0.47239	0.040444
99	C	0.027604	0.50002	0.041236
100	C	0.055695	0.529479	0.003236
101	C	0.027449	0.531282	0.299139
102	H	0.952381	0.451836	0.068227
103	C	0.972489	0.504019	0.299011
104	H	0.046711	0.55187	0.271182
105	H	0.95345	0.505548	0.270997
106	N	0.055181	0.500113	0.079952
107	O	0.044945	0.454698	0.090197
108	O	0.044667	0.51985	0.112699
109	C	0.360247	0.721344	0.333731
110	N	0.385486	0.693425	0.334588
111	C	0.359972	0.640253	0.334464
112	N	0.306831	0.615035	0.333731
113	C	0.279176	0.640534	0.332944
114	N	0.307083	0.693691	0.332932
115	C	0.387637	0.612142	0.335178
116	C	0.442481	0.638138	0.341862
117	C	0.469776	0.610422	0.342669
118	C	0.443212	0.555635	0.336654
119	C	0.388629	0.529452	0.329513
120	C	0.361341	0.557187	0.329056
121	C	0.388247	0.777131	0.33412
122	C	0.443066	0.805703	0.34102
123	C	0.470627	0.860713	0.341955
124	C	0.444373	0.889219	0.335839
125	C	0.389842	0.8611	0.328365
126	C	0.362284	0.806075	0.327777
127	C	0.223398	0.612744	0.333004
128	C	0.194676	0.638986	0.326994
129	C	0.139648	0.611657	0.327757
130	C	0.111348	0.557109	0.335105
131	C	0.139631	0.530558	0.34073
132	C	0.194623	0.557879	0.339602
133	H	0.51025	0.879831	0.346745
134	H	0.463778	0.786827	0.345807
135	H	0.369548	0.880496	0.323947
136	H	0.322795	0.787457	0.322452
137	H	0.213461	0.678525	0.321934
138	H	0.120396	0.632148	0.323722
139	H	0.213337	0.536978	0.344202
140	H	0.120363	0.490922	0.34545
141	H	0.321826	0.536497	0.323838
142	H	0.368129	0.48976	0.325142
143	H	0.509443	0.63076	0.347209
144	H	0.463419	0.677751	0.346448
145	C	0.639709	0.280247	0.333759
146	N	0.61413	0.307818	0.332429
147	C	0.639437	0.360971	0.33256
148	N	0.692573	0.38655	0.333785
149	C	0.720417	0.361268	0.334972
150	N	0.692859	0.308095	0.335135
151	C	0.611466	0.388715	0.332308
152	C	0.557625	0.363468	0.321285
153	C	0.52991	0.390787	0.321534
154	C	0.554816	0.444185	0.333614
155	C	0.608491	0.469532	0.344796
156	C	0.636374	0.442418	0.343771
157	C	0.611929	0.224518	0.333933
158	C	0.558224	0.195682	0.322462
159	C	0.530806	0.140656	0.322488
160	C	0.555862	0.112357	0.334724
161	C	0.609362	0.140918	0.346492
162	C	0.63696	0.195937	0.345724
163	C	0.776135	0.389389	0.335629
164	C	0.804935	0.364482	0.347046
165	C	0.859958	0.392276	0.34764
166	C	0.888272	0.445843	0.33605
167	C	0.859747	0.470806	0.324294
168	C	0.804729	0.443204	0.32449
169	H	0.491957	0.121406	0.314268
170	H	0.538348	0.214396	0.313479
171	H	0.629021	0.121844	0.355091
172	H	0.675602	0.214843	0.354554
173	H	0.786187	0.32574	0.355542
174	H	0.879221	0.372686	0.355855
175	H	0.785846	0.462971	0.315687
176	H	0.878833	0.509696	0.31621
177	H	0.675092	0.462408	0.352347
178	H	0.628035	0.508308	0.353272
179	H	0.490944	0.370924	0.313741
180	H	0.537844	0.324779	0.312607
181	C	0.526631	0.471674	0.334815
182	C	0.528493	0.50088	0.372867
183	C	0.500832	0.528584	0.374656
184	C	0.470877	0.527618	0.337175
185	C	0.468644	0.498022	0.632588
186	H	0.549427	0.501333	0.400281
187	C	0.495954	0.470388	0.631467
188	H	0.447712	0.497009	0.604974
189	H	0.494119	0.450183	0.603118
190	N	0.501213	0.555612	0.413841
191	O	0.546747	0.590701	0.423872
192	O	0.48193	0.524983	0.446415
193	C	0.527969	0.056652	0.335365
194	C	0.52956	0.02886	0.373198
195	C	0.50188	0.973469	0.374516
196	C	0.47225	0.944901	0.336747
197	C	0.470419	0.972706	0.632324
198	H	0.55014	0.04902	0.400858
199	C	0.497698	0.027661	0.63169
200	H	0.449683	0.953111	0.60453
201	H	0.496054	0.046348	0.603479
202	N	0.501875	0.946378	0.413533
203	O	0.54731	0.956688	0.423795
204	O	0.482293	0.957365	0.446108
205	C	0.943965	0.473848	0.33623
206	C	0.972206	0.47239	0.373778
207	C	0.027604	0.50002	0.37457
208	C	0.055695	0.529479	0.336571
209	C	0.027449	0.531282	0.632471
210	H	0.952381	0.451836	0.401559
211	C	0.972489	0.504019	0.632345
212	H	0.046711	0.55187	0.604517
213	H	0.95345	0.505548	0.60433
214	N	0.055181	0.500113	0.413286
215	O	0.044945	0.454698	0.423531
216	O	0.044667	0.51985	0.446031
217	C	0.360247	0.721344	0.667065
218	N	0.385486	0.693425	0.66792
219	C	0.359972	0.640253	0.667797
220	N	0.306831	0.615035	0.667065
221	C	0.279176	0.640534	0.666278
222	N	0.307083	0.693691	0.666264
223	C	0.387637	0.612142	0.668514
224	C	0.442481	0.638138	0.675197
225	C	0.469776	0.610422	0.676005
226	C	0.443212	0.555635	0.669986
227	C	0.388629	0.529452	0.662846
228	C	0.361341	0.557187	0.662389
229	C	0.388247	0.777131	0.667456
230	C	0.443066	0.805703	0.674353
231	C	0.470627	0.860713	0.675288
232	C	0.444373	0.889219	0.669172
233	C	0.389842	0.8611	0.661698
234	C	0.362284	0.806075	0.66111
235	C	0.223398	0.612744	0.666338
236	C	0.194676	0.638986	0.660326
237	C	0.139648	0.611657	0.66109
238	C	0.111348	0.557109	0.668437
239	C	0.139631	0.530558	0.674062
240	C	0.194623	0.557879	0.672934
241	H	0.51025	0.879831	0.680078
242	H	0.463778	0.786827	0.679143
243	H	0.369548	0.880496	0.657281
244	H	0.322795	0.787457	0.655786
245	H	0.213461	0.678525	0.655268
246	H	0.120396	0.632148	0.657054
247	H	0.213337	0.536978	0.677534
248	H	0.120363	0.490922	0.678783
249	H	0.321826	0.536497	0.657171
250	H	0.368129	0.48976	0.658476
251	H	0.509443	0.63076	0.680542
252	H	0.463419	0.677751	0.679781
253	C	0.639709	0.280247	0.667092
254	N	0.61413	0.307818	0.665764
255	C	0.639437	0.360971	0.665894
256	N	0.692573	0.38655	0.667119
257	C	0.720417	0.361268	0.668304
258	N	0.692859	0.308095	0.668468
259	C	0.611466	0.388715	0.66564
260	C	0.557625	0.363468	0.654617
261	C	0.52991	0.390787	0.654868
262	C	0.554816	0.444185	0.666945
263	C	0.608491	0.469532	0.678128
264	C	0.636374	0.442418	0.677104
265	C	0.611929	0.224518	0.667269
266	C	0.558224	0.195682	0.655796
267	C	0.530806	0.140656	0.655822
268	C	0.555862	0.112357	0.668057
269	C	0.609362	0.140918	0.679828
270	C	0.63696	0.195937	0.679056
271	C	0.776135	0.389389	0.668962
272	C	0.804935	0.364482	0.680378
273	C	0.859958	0.392276	0.680973
274	C	0.888272	0.445843	0.669382
275	C	0.859747	0.470806	0.657628
276	C	0.804729	0.443204	0.657822
277	H	0.491957	0.121406	0.6476
278	H	0.538348	0.214396	0.646812
279	H	0.629021	0.121844	0.688427
280	H	0.675602	0.214843	0.687886
281	H	0.786187	0.32574	0.688874
282	H	0.879221	0.372686	0.689191
283	H	0.785846	0.462971	0.649019
284	H	0.878833	0.509696	0.649543
285	H	0.675092	0.462408	0.685679
286	H	0.628035	0.508308	0.686604
287	H	0.490944	0.370924	0.647073
288	H	0.537844	0.324779	0.645941
289	C	0.526631	0.471674	0.66815
290	C	0.528493	0.50088	0.7062
291	C	0.500832	0.528584	0.707989
292	C	0.470877	0.527618	0.670507
293	C	0.468644	0.498022	0.965921
294	H	0.549427	0.501333	0.733613
295	C	0.495954	0.470388	0.964799
296	H	0.447712	0.497009	0.938307
297	H	0.494119	0.450183	0.936451
298	N	0.501213	0.555612	0.747173
299	O	0.546747	0.590701	0.757204
300	O	0.48193	0.524983	0.779747
301	C	0.527969	0.056652	0.668698
302	C	0.52956	0.02886	0.70653
303	C	0.50188	0.973469	0.707849
304	C	0.47225	0.944901	0.67008
305	C	0.470419	0.972706	0.96566
306	H	0.55014	0.04902	0.734191
307	C	0.497698	0.027661	0.965023
308	H	0.449683	0.953111	0.937866
309	H	0.496054	0.046348	0.936815
310	N	0.501875	0.946378	0.746866
311	O	0.54731	0.956688	0.757128
312	O	0.482293	0.957365	0.77944
313	C	0.943965	0.473848	0.669566
314	C	0.972206	0.47239	0.707111
315	C	0.027604	0.50002	0.707902
316	C	0.055695	0.529479	0.669903
317	C	0.027449	0.531282	0.965807
318	H	0.952381	0.451836	0.734892
319	C	0.972489	0.504019	0.965677
320	H	0.046711	0.55187	0.937849
321	H	0.95345	0.505548	0.937662
322	N	0.055181	0.500113	0.746619
323	O	0.044945	0.454698	0.756864
324	O	0.044667	0.51985	0.779367
