data_C216H126N36_2018-02-15_10:42:14
#******************************************
#
# CIF file created by Zeo++
# Zeo++ is an open source package to
# analyze microporous materials
#
#*******************************************

_cell_length_a		36.7998   
_cell_length_b		36.7998   
_cell_length_c		29.9166   
_cell_angle_alpha		90   
_cell_angle_beta		90   
_cell_angle_gamma		120   

_symmetry_space_group_name_H-M		'P1'
_symmetry_Int_Tables_number		1
_symmetry_cell_setting		Monoclinic

loop_
_symmetry_equiv_pos_as_xyz
'+x,+y,+z'

loop_
_atom_site_label
_atom_site_type_symbol
_atom_site_fract_x
_atom_site_fract_y
_atom_site_fract_z
1	C	0.35709	0.711396	0.001496
2	N	0.377424	0.689061	0.001498
3	C	0.357089	0.646393	0.001497
4	N	0.314422	0.62606	0.001497
5	C	0.292089	0.646393	0.001495
6	N	0.314421	0.689061	0.001497
7	C	0.379486	0.623999	0.001547
8	C	0.423991	0.645405	0.00155
9	C	0.446139	0.623384	0.001496
10	C	0.424346	0.579138	0.00149
11	C	0.380099	0.557343	0.001497
12	C	0.358078	0.579492	0.001553
13	C	0.379485	0.756187	0.001547
14	C	0.423991	0.779285	0.001553
15	C	0.446137	0.823452	0.001499
16	C	0.424344	0.845906	0.001491
17	C	0.380097	0.823452	0.001496
18	C	0.358076	0.779285	0.00155
19	C	0.247295	0.623996	0.001546
20	C	0.224198	0.645405	0.00155
21	C	0.180029	0.623384	0.001498
22	C	0.157577	0.579138	0.001493
23	C	0.180029	0.557343	0.001497
24	C	0.224198	0.579489	0.001551
25	H	0.478265	0.839063	0.001349
26	H	0.441032	0.764245	0.001498
27	H	0.36358	0.839063	0.001349
28	H	0.325996	0.764245	0.001497
29	H	0.239237	0.677485	0.001498
30	H	0.16442	0.639901	0.001349
31	H	0.239238	0.562451	0.001496
32	H	0.16442	0.525215	0.001349
33	H	0.325998	0.562451	0.001499
34	H	0.363582	0.525218	0.001353
35	H	0.478266	0.639901	0.001349
36	H	0.441032	0.677485	0.001499
37	C	0.647088	0.291393	0.001242
38	N	0.626754	0.313725	0.001246
39	C	0.647088	0.356393	0.001242
40	N	0.689756	0.376729	0.001246
41	C	0.712088	0.356393	0.001242
42	N	0.689757	0.313725	0.001246
43	C	0.624694	0.37879	0.001252
44	C	0.580185	0.357381	0.001292
45	C	0.558037	0.379402	0.001463
46	C	0.579831	0.423648	0.001544
47	C	0.62408	0.445443	0.00146
48	C	0.646102	0.423297	0.001296
49	C	0.624691	0.246599	0.001252
50	C	0.580186	0.223502	0.001296
51	C	0.558039	0.179334	0.001462
52	C	0.579832	0.156881	0.001545
53	C	0.62408	0.179334	0.001462
54	C	0.646099	0.223502	0.001292
55	C	0.756882	0.37879	0.001252
56	C	0.779979	0.357381	0.001296
57	C	0.824147	0.379402	0.001462
58	C	0.846599	0.423648	0.001546
59	C	0.824149	0.445443	0.001459
60	C	0.77998	0.423297	0.001292
61	H	0.525911	0.163725	0.001636
62	H	0.563145	0.238541	0.001306
63	H	0.640596	0.163724	0.001637
64	H	0.678181	0.238541	0.001309
65	H	0.764939	0.3253	0.001306
66	H	0.839756	0.362885	0.001637
67	H	0.764939	0.440335	0.001309
68	H	0.839757	0.477568	0.001638
69	H	0.678182	0.440338	0.001309
70	H	0.640597	0.477571	0.001637
71	H	0.525912	0.362885	0.001638
72	H	0.563144	0.3253	0.001309
73	C	0.446495	0.556988	0.334137
74	C	0.457581	0.545915	0.293324
75	C	0.479665	0.523831	0.293068
76	C	0.490908	0.512579	0.333925
77	N	0.47945	0.524026	0.0391
78	C	0.458171	0.545303	0.040814
79	C	0.513276	0.490213	0.00257
80	C	0.52453	0.478948	0.043412
81	C	0.546616	0.456865	0.043122
82	C	0.557683	0.445798	0.002291
83	C	0.545994	0.457495	0.295632
84	N	0.524719	0.478773	0.297382
85	H	0.553249	0.450244	0.265149
86	H	0.516918	0.486561	0.073505
87	H	0.554536	0.448939	0.072893
88	H	0.450902	0.552564	0.071285
89	H	0.449674	0.553832	0.26354
90	H	0.487289	0.516216	0.262983
91	C	0.446493	0.890205	0.334138
92	C	0.457567	0.912364	0.293324
93	C	0.47965	0.956532	0.293068
94	C	0.490903	0.979027	0.333924
95	N	0.479457	0.956124	0.0391
96	C	0.458179	0.913566	0.040815
97	C	0.513272	0.023761	0.00257
98	C	0.524534	0.04628	0.043412
99	C	0.546618	0.090449	0.043122
100	C	0.557683	0.112583	0.002291
101	C	0.545987	0.089196	0.295633
102	N	0.524711	0.046645	0.297382
103	H	0.55324	0.103703	0.265149
104	H	0.51692	0.031053	0.073504
105	H	0.554541	0.106294	0.072894
106	H	0.450919	0.899038	0.071286
107	H	0.449651	0.896541	0.263541
108	H	0.487266	0.971772	0.262983
109	C	0.113278	0.556988	0.334139
110	C	0.091119	0.545902	0.293325
111	C	0.046951	0.523816	0.293068
112	C	0.024455	0.512573	0.333924
113	N	0.04736	0.524032	0.0391
114	C	0.089915	0.545309	0.040815
115	C	0.979722	0.490207	0.00257
116	C	0.957201	0.478948	0.043412
117	C	0.913031	0.456865	0.043123
118	C	0.8909	0.445798	0.002292
119	C	0.914286	0.457489	0.295633
120	N	0.956837	0.478763	0.297382
121	H	0.899777	0.450231	0.26515
122	H	0.972427	0.486564	0.073504
123	H	0.897188	0.448945	0.072894
124	H	0.104445	0.55258	0.071287
125	H	0.106943	0.55381	0.263541
126	H	0.031713	0.516194	0.262983
127	C	0.35709	0.711396	0.33483
128	N	0.377424	0.689061	0.33483
129	C	0.357089	0.646393	0.33483
130	N	0.314422	0.62606	0.33483
131	C	0.292089	0.646393	0.33483
132	N	0.314421	0.689061	0.33483
133	C	0.379486	0.623999	0.334881
134	C	0.423991	0.645405	0.334884
135	C	0.446139	0.623384	0.33483
136	C	0.424346	0.579138	0.334824
137	C	0.380099	0.557343	0.33483
138	C	0.358078	0.579492	0.334887
139	C	0.379485	0.756187	0.334881
140	C	0.423991	0.779285	0.334887
141	C	0.446137	0.823452	0.334834
142	C	0.424344	0.845906	0.334824
143	C	0.380097	0.823452	0.33483
144	C	0.358076	0.779285	0.334884
145	C	0.247295	0.623996	0.334881
146	C	0.224198	0.645405	0.334884
147	C	0.180029	0.623384	0.33483
148	C	0.157577	0.579138	0.334827
149	C	0.180029	0.557343	0.33483
150	C	0.224198	0.579489	0.334884
151	H	0.478265	0.839063	0.334683
152	H	0.441032	0.764245	0.33483
153	H	0.36358	0.839063	0.33468
154	H	0.325996	0.764245	0.33483
155	H	0.239237	0.677485	0.33483
156	H	0.16442	0.639901	0.334683
157	H	0.239238	0.562451	0.33483
158	H	0.16442	0.525215	0.33468
159	H	0.325998	0.562451	0.334834
160	H	0.363582	0.525218	0.334683
161	H	0.478266	0.639901	0.334683
162	H	0.441032	0.677485	0.334834
163	C	0.647088	0.291393	0.334576
164	N	0.626754	0.313725	0.33458
165	C	0.647088	0.356393	0.334576
166	N	0.689756	0.376729	0.33458
167	C	0.712088	0.356393	0.334573
168	N	0.689757	0.313725	0.33458
169	C	0.624694	0.37879	0.334586
170	C	0.580185	0.357381	0.334627
171	C	0.558037	0.379402	0.334797
172	C	0.579831	0.423648	0.334877
173	C	0.62408	0.445443	0.334794
174	C	0.646102	0.423297	0.334627
175	C	0.624691	0.246599	0.334583
176	C	0.580186	0.223502	0.33463
177	C	0.558039	0.179334	0.334797
178	C	0.579832	0.156881	0.334877
179	C	0.62408	0.179334	0.334797
180	C	0.646099	0.223502	0.334627
181	C	0.756882	0.37879	0.334583
182	C	0.779979	0.357381	0.334627
183	C	0.824147	0.379402	0.334797
184	C	0.846599	0.423648	0.334881
185	C	0.824149	0.445443	0.334794
186	C	0.77998	0.423297	0.334627
187	H	0.525911	0.163725	0.334971
188	H	0.563145	0.238541	0.33464
189	H	0.640596	0.163724	0.334971
190	H	0.678181	0.238541	0.33464
191	H	0.764939	0.3253	0.33464
192	H	0.839756	0.362885	0.334971
193	H	0.764939	0.440335	0.33464
194	H	0.839757	0.477568	0.334971
195	H	0.678182	0.440338	0.33464
196	H	0.640597	0.477571	0.334971
197	H	0.525912	0.362885	0.334971
198	H	0.563144	0.3253	0.334643
199	C	0.446495	0.556988	0.667472
200	C	0.457581	0.545915	0.626658
201	C	0.479665	0.523831	0.626401
202	C	0.490908	0.512579	0.667258
203	N	0.47945	0.524026	0.372432
204	C	0.458171	0.545303	0.37415
205	C	0.513276	0.490213	0.335903
206	C	0.52453	0.478948	0.376747
207	C	0.546616	0.456865	0.376456
208	C	0.557683	0.445798	0.335623
209	C	0.545994	0.457495	0.628964
210	N	0.524719	0.478773	0.630716
211	H	0.553249	0.450244	0.598483
212	H	0.516918	0.486561	0.406837
213	H	0.554536	0.448939	0.406226
214	H	0.450902	0.552564	0.404618
215	H	0.449674	0.553832	0.596875
216	H	0.487289	0.516216	0.596317
217	C	0.446493	0.890205	0.667472
218	C	0.457567	0.912364	0.626658
219	C	0.47965	0.956532	0.626401
220	C	0.490903	0.979027	0.667258
221	N	0.479457	0.956124	0.372432
222	C	0.458179	0.913566	0.37415
223	C	0.513272	0.023761	0.335903
224	C	0.524534	0.04628	0.376747
225	C	0.546618	0.090449	0.376456
226	C	0.557683	0.112583	0.335626
227	C	0.545987	0.089196	0.628968
228	N	0.524711	0.046645	0.630716
229	H	0.55324	0.103703	0.598483
230	H	0.51692	0.031053	0.406837
231	H	0.554541	0.106294	0.406226
232	H	0.450919	0.899038	0.404621
233	H	0.449651	0.896541	0.596875
234	H	0.487266	0.971772	0.596317
235	C	0.113278	0.556988	0.667472
236	C	0.091119	0.545902	0.626658
237	C	0.046951	0.523816	0.626401
238	C	0.024455	0.512573	0.667258
239	N	0.04736	0.524032	0.372435
240	C	0.089915	0.545309	0.37415
241	C	0.979722	0.490207	0.335903
242	C	0.957201	0.478948	0.376747
243	C	0.913031	0.456865	0.376456
244	C	0.8909	0.445798	0.335626
245	C	0.914286	0.457489	0.628968
246	N	0.956837	0.478763	0.630716
247	H	0.899777	0.450231	0.598483
248	H	0.972427	0.486564	0.406837
249	H	0.897188	0.448945	0.406229
250	H	0.104445	0.55258	0.404621
251	H	0.106943	0.55381	0.596875
252	H	0.031713	0.516194	0.596317
253	C	0.35709	0.711396	0.668163
254	N	0.377424	0.689061	0.668167
255	C	0.357089	0.646393	0.668163
256	N	0.314422	0.62606	0.668163
257	C	0.292089	0.646393	0.668163
258	N	0.314421	0.689061	0.668163
259	C	0.379486	0.623999	0.668214
260	C	0.423991	0.645405	0.668217
261	C	0.446139	0.623384	0.668163
262	C	0.424346	0.579138	0.668157
263	C	0.380099	0.557343	0.668163
264	C	0.358078	0.579492	0.66822
265	C	0.379485	0.756187	0.668214
266	C	0.423991	0.779285	0.66822
267	C	0.446137	0.823452	0.668167
268	C	0.424344	0.845906	0.66816
269	C	0.380097	0.823452	0.668163
270	C	0.358076	0.779285	0.668217
271	C	0.247295	0.623996	0.668214
272	C	0.224198	0.645405	0.668217
273	C	0.180029	0.623384	0.668167
274	C	0.157577	0.579138	0.66816
275	C	0.180029	0.557343	0.668163
276	C	0.224198	0.579489	0.66822
277	H	0.478265	0.839063	0.668016
278	H	0.441032	0.764245	0.668167
279	H	0.36358	0.839063	0.668016
280	H	0.325996	0.764245	0.668163
281	H	0.239237	0.677485	0.668167
282	H	0.16442	0.639901	0.668016
283	H	0.239238	0.562451	0.668163
284	H	0.16442	0.525215	0.668013
285	H	0.325998	0.562451	0.668167
286	H	0.363582	0.525218	0.668016
287	H	0.478266	0.639901	0.668016
288	H	0.441032	0.677485	0.668167
289	C	0.647088	0.291393	0.667909
290	N	0.626754	0.313725	0.667913
291	C	0.647088	0.356393	0.667909
292	N	0.689756	0.376729	0.667913
293	C	0.712088	0.356393	0.667909
294	N	0.689757	0.313725	0.667913
295	C	0.624694	0.37879	0.667919
296	C	0.580185	0.357381	0.66796
297	C	0.558037	0.379402	0.66813
298	C	0.579831	0.423648	0.66821
299	C	0.62408	0.445443	0.668127
300	C	0.646102	0.423297	0.66796
301	C	0.624691	0.246599	0.667919
302	C	0.580186	0.223502	0.667963
303	C	0.558039	0.179334	0.66813
304	C	0.579832	0.156881	0.668214
305	C	0.62408	0.179334	0.66813
306	C	0.646099	0.223502	0.66796
307	C	0.756882	0.37879	0.667916
308	C	0.779979	0.357381	0.66796
309	C	0.824147	0.379402	0.66813
310	C	0.846599	0.423648	0.668214
311	C	0.824149	0.445443	0.668127
312	C	0.77998	0.423297	0.66796
313	H	0.525911	0.163725	0.668304
314	H	0.563145	0.238541	0.667973
315	H	0.640596	0.163724	0.668304
316	H	0.678181	0.238541	0.667973
317	H	0.764939	0.3253	0.667973
318	H	0.839756	0.362885	0.668304
319	H	0.764939	0.440335	0.667973
320	H	0.839757	0.477568	0.668307
321	H	0.678182	0.440338	0.667976
322	H	0.640597	0.477571	0.668304
323	H	0.525912	0.362885	0.668304
324	H	0.563144	0.3253	0.667976
325	C	0.446495	0.556988	0.000804
326	C	0.457581	0.545915	0.959991
327	C	0.479665	0.523831	0.959734
328	C	0.490908	0.512579	0.000591
329	N	0.47945	0.524026	0.705768
330	C	0.458171	0.545303	0.707483
331	C	0.513276	0.490213	0.669236
332	C	0.52453	0.478948	0.71008
333	C	0.546616	0.456865	0.709789
334	C	0.557683	0.445798	0.668959
335	C	0.545994	0.457495	0.962301
336	N	0.524719	0.478773	0.964049
337	H	0.553249	0.450244	0.931816
338	H	0.516918	0.486561	0.74017
339	H	0.554536	0.448939	0.739562
340	H	0.450902	0.552564	0.737954
341	H	0.449674	0.553832	0.930208
342	H	0.487289	0.516216	0.92965
343	C	0.446493	0.890205	0.000804
344	C	0.457567	0.912364	0.959991
345	C	0.47965	0.956532	0.959734
346	C	0.490903	0.979027	0.000591
347	N	0.479457	0.956124	0.705768
348	C	0.458179	0.913566	0.707483
349	C	0.513272	0.023761	0.669236
350	C	0.524534	0.04628	0.71008
351	C	0.546618	0.090449	0.709789
352	C	0.557683	0.112583	0.668959
353	C	0.545987	0.089196	0.962301
354	N	0.524711	0.046645	0.964049
355	H	0.55324	0.103703	0.931816
356	H	0.51692	0.031053	0.74017
357	H	0.554541	0.106294	0.739562
358	H	0.450919	0.899038	0.737954
359	H	0.449651	0.896541	0.930208
360	H	0.487266	0.971772	0.92965
361	C	0.113278	0.556988	0.000804
362	C	0.091119	0.545902	0.959991
363	C	0.046951	0.523816	0.959737
364	C	0.024455	0.512573	0.000591
365	N	0.04736	0.524032	0.705768
366	C	0.089915	0.545309	0.707483
367	C	0.979722	0.490207	0.669236
368	C	0.957201	0.478948	0.71008
369	C	0.913031	0.456865	0.709789
370	C	0.8909	0.445798	0.668959
371	C	0.914286	0.457489	0.962301
372	N	0.956837	0.478763	0.964049
373	H	0.899777	0.450231	0.931816
374	H	0.972427	0.486564	0.74017
375	H	0.897188	0.448945	0.739562
376	H	0.104445	0.55258	0.737954
377	H	0.106943	0.55381	0.930208
378	H	0.031713	0.516194	0.92965
