data_C216H108N54_2018-02-15_10:42:17
#******************************************
#
# CIF file created by Zeo++
# Zeo++ is an open source package to
# analyze microporous materials
#
#*******************************************

_cell_length_a		36.6813   
_cell_length_b		36.6813   
_cell_length_c		29.971   
_cell_angle_alpha		90   
_cell_angle_beta		90   
_cell_angle_gamma		120   

_symmetry_space_group_name_H-M		'P1'
_symmetry_Int_Tables_number		1
_symmetry_cell_setting		Monoclinic

loop_
_symmetry_equiv_pos_as_xyz
'+x,+y,+z'

loop_
_atom_site_label
_atom_site_type_symbol
_atom_site_fract_x
_atom_site_fract_y
_atom_site_fract_z
1	C	0.355791	0.710616	0.000446
2	N	0.376192	0.688218	0.000453
3	C	0.355791	0.645419	0.000446
4	N	0.312992	0.625017	0.000453
5	C	0.290595	0.645419	0.000446
6	N	0.312993	0.688218	0.000453
7	C	0.378259	0.622949	0.00048
8	C	0.422908	0.64444	0.000509
9	C	0.44512	0.622354	0.000615
10	C	0.423237	0.577972	0.000691
11	C	0.378852	0.556087	0.000615
12	C	0.35677	0.578302	0.000509
13	C	0.37826	0.755552	0.00048
14	C	0.422909	0.778712	0.000509
15	C	0.445122	0.823009	0.000615
16	C	0.423237	0.845508	0.000691
17	C	0.378854	0.823009	0.000615
18	C	0.35677	0.778712	0.000509
19	C	0.245656	0.622949	0.00048
20	C	0.222498	0.64444	0.000509
21	C	0.178202	0.622357	0.000615
22	C	0.155701	0.577972	0.000691
23	C	0.178201	0.556087	0.000615
24	C	0.222499	0.578302	0.000509
25	H	0.477353	0.83868	0.000645
26	H	0.44	0.763621	0.000473
27	H	0.362293	0.83868	0.000645
28	H	0.324587	0.763621	0.000473
29	H	0.237589	0.676621	0.000473
30	H	0.162529	0.638916	0.000645
31	H	0.237589	0.561209	0.000473
32	H	0.162529	0.523856	0.000645
33	H	0.324586	0.561209	0.000473
34	H	0.362293	0.523856	0.000645
35	H	0.477353	0.638916	0.000645
36	H	0.439999	0.676621	0.000473
37	C	0.645658	0.290353	0.00048
38	N	0.625257	0.31275	0.00048
39	C	0.645659	0.355549	0.00048
40	N	0.688457	0.37595	0.00048
41	C	0.710856	0.355549	0.00048
42	N	0.688456	0.31275	0.00048
43	C	0.62319	0.378019	0.00046
44	C	0.578542	0.356528	0.000453
45	C	0.556329	0.37861	0.00046
46	C	0.578213	0.422993	0.000456
47	C	0.622597	0.444877	0.00046
48	C	0.644682	0.422666	0.000453
49	C	0.623189	0.245416	0.00046
50	C	0.578542	0.222258	0.000456
51	C	0.556328	0.177961	0.00046
52	C	0.578212	0.155462	0.00046
53	C	0.622596	0.177962	0.00046
54	C	0.644682	0.222258	0.000453
55	C	0.75579	0.378015	0.00046
56	C	0.778949	0.356528	0.000453
57	C	0.823247	0.37861	0.00046
58	C	0.845744	0.422993	0.00046
59	C	0.823247	0.444877	0.00046
60	C	0.77895	0.422666	0.000453
61	H	0.524098	0.162289	0.000488
62	H	0.561451	0.237349	0.000466
63	H	0.639157	0.16229	0.000488
64	H	0.676864	0.237349	0.000466
65	H	0.763857	0.324343	0.000466
66	H	0.838916	0.362049	0.000488
67	H	0.763859	0.439756	0.000466
68	H	0.838918	0.477109	0.000488
69	H	0.676863	0.439756	0.000466
70	H	0.639157	0.477109	0.000488
71	H	0.524096	0.362049	0.000488
72	H	0.561449	0.324343	0.000466
73	C	0.555997	0.445211	0.333923
74	C	0.54458	0.456629	0.293487
75	N	0.523211	0.478	0.294058
76	C	0.511818	0.489389	0.332458
77	C	0.52253	0.478677	0.040647
78	C	0.544682	0.456528	0.041153
79	H	0.552496	0.448712	0.071039
80	C	0.489631	0.511576	0.332502
81	C	0.445455	0.555754	0.000785
82	C	0.4568	0.544408	0.041312
83	H	0.552165	0.449042	0.263398
84	N	0.478211	0.522996	0.294142
85	C	0.478952	0.522257	0.040729
86	N	0.490451	0.510757	0.078941
87	N	0.511063	0.490145	0.078903
88	H	0.449007	0.5522	0.071223
89	C	0.456842	0.544368	0.293646
90	H	0.449234	0.551973	0.263581
91	C	0.555995	0.111026	0.333923
92	C	0.544581	0.088194	0.293487
93	N	0.523211	0.045453	0.294058
94	C	0.51182	0.022671	0.332458
95	C	0.522531	0.044095	0.040647
96	C	0.54468	0.088397	0.041153
97	H	0.552494	0.104025	0.071039
98	C	0.489632	0.978296	0.332501
99	C	0.445455	0.889944	0.000785
100	C	0.4568	0.912634	0.041312
101	H	0.552167	0.103365	0.263398
102	N	0.478212	0.955458	0.294142
103	C	0.478952	0.956938	0.040729
104	N	0.490451	0.979937	0.078941
105	N	0.511064	0.02116	0.078903
106	H	0.449009	0.897052	0.071223
107	C	0.456843	0.912719	0.293646
108	H	0.449236	0.897505	0.263581
109	C	0.890181	0.445211	0.333923
110	C	0.913013	0.456629	0.293487
111	N	0.955755	0.478	0.294058
112	C	0.978535	0.489389	0.332458
113	C	0.957111	0.478677	0.040647
114	C	0.912812	0.456528	0.041153
115	H	0.897182	0.448712	0.07104
116	C	0.022912	0.511579	0.332501
117	C	0.111265	0.555754	0.000785
118	C	0.088574	0.544408	0.041312
119	H	0.897843	0.449042	0.263399
120	N	0.045751	0.522996	0.294142
121	C	0.044271	0.522257	0.040729
122	N	0.021272	0.510757	0.078941
123	N	0.980047	0.490145	0.078903
124	H	0.104159	0.5522	0.071223
125	C	0.088491	0.544368	0.293646
126	H	0.103706	0.551976	0.263581
127	C	0.355791	0.710616	0.333779
128	N	0.376192	0.688218	0.333786
129	C	0.355791	0.645419	0.333779
130	N	0.312992	0.625017	0.333786
131	C	0.290595	0.645419	0.333779
132	N	0.312993	0.688218	0.333786
133	C	0.378259	0.622949	0.333812
134	C	0.422908	0.64444	0.333842
135	C	0.44512	0.622354	0.333949
136	C	0.423237	0.577972	0.334023
137	C	0.378852	0.556087	0.333949
138	C	0.35677	0.578302	0.333842
139	C	0.37826	0.755552	0.333812
140	C	0.422909	0.778712	0.333842
141	C	0.445122	0.823009	0.333949
142	C	0.423237	0.845508	0.334023
143	C	0.378854	0.823009	0.333949
144	C	0.35677	0.778712	0.333842
145	C	0.245656	0.622949	0.333812
146	C	0.222498	0.64444	0.333842
147	C	0.178202	0.622357	0.333949
148	C	0.155701	0.577972	0.334023
149	C	0.178201	0.556087	0.333949
150	C	0.222499	0.578302	0.333842
151	H	0.477353	0.83868	0.333979
152	H	0.44	0.763621	0.333806
153	H	0.362293	0.83868	0.333979
154	H	0.324587	0.763621	0.333806
155	H	0.237589	0.676621	0.333806
156	H	0.162529	0.638916	0.333979
157	H	0.237589	0.561209	0.333806
158	H	0.162529	0.523856	0.333979
159	H	0.324586	0.561209	0.333806
160	H	0.362293	0.523856	0.333979
161	H	0.477353	0.638916	0.333979
162	H	0.439999	0.676621	0.333806
163	C	0.645658	0.290353	0.333812
164	N	0.625257	0.31275	0.333812
165	C	0.645659	0.355549	0.333812
166	N	0.688457	0.37595	0.333812
167	C	0.710856	0.355549	0.333812
168	N	0.688456	0.31275	0.333812
169	C	0.62319	0.378019	0.333792
170	C	0.578542	0.356528	0.333786
171	C	0.556329	0.37861	0.333792
172	C	0.578213	0.422993	0.333792
173	C	0.622597	0.444877	0.333792
174	C	0.644682	0.422666	0.333786
175	C	0.623189	0.245416	0.333792
176	C	0.578542	0.222258	0.333789
177	C	0.556328	0.177961	0.333792
178	C	0.578212	0.155462	0.333792
179	C	0.622596	0.177962	0.333792
180	C	0.644682	0.222258	0.333786
181	C	0.75579	0.378015	0.333792
182	C	0.778949	0.356528	0.333786
183	C	0.823247	0.37861	0.333792
184	C	0.845744	0.422993	0.333792
185	C	0.823247	0.444877	0.333792
186	C	0.77895	0.422666	0.333786
187	H	0.524098	0.162289	0.333822
188	H	0.561451	0.237349	0.333799
189	H	0.639157	0.16229	0.333822
190	H	0.676864	0.237349	0.333799
191	H	0.763857	0.324343	0.333799
192	H	0.838916	0.362049	0.333822
193	H	0.763859	0.439756	0.333799
194	H	0.838918	0.477109	0.333822
195	H	0.676863	0.439756	0.333799
196	H	0.639157	0.477109	0.333822
197	H	0.524096	0.362049	0.333822
198	H	0.561449	0.324343	0.333799
199	C	0.555997	0.445211	0.667258
200	C	0.54458	0.456629	0.626822
201	N	0.523211	0.478	0.627393
202	C	0.511818	0.489389	0.665793
203	C	0.52253	0.478677	0.373981
204	C	0.544682	0.456528	0.374485
205	H	0.552496	0.448712	0.404374
206	C	0.489631	0.511576	0.665836
207	C	0.445455	0.555754	0.334119
208	C	0.4568	0.544408	0.374645
209	H	0.552165	0.449042	0.596733
210	N	0.478211	0.522996	0.627476
211	C	0.478952	0.522257	0.374061
212	N	0.490451	0.510757	0.412275
213	N	0.511063	0.490145	0.412235
214	H	0.449007	0.5522	0.404557
215	C	0.456842	0.544368	0.626979
216	H	0.449234	0.551973	0.596917
217	C	0.555995	0.111026	0.667258
218	C	0.544581	0.088194	0.626822
219	N	0.523211	0.045453	0.627393
220	C	0.51182	0.022671	0.665793
221	C	0.522531	0.044095	0.373981
222	C	0.54468	0.088397	0.374485
223	H	0.552494	0.104025	0.404374
224	C	0.489632	0.978296	0.665836
225	C	0.445455	0.889944	0.334119
226	C	0.4568	0.912634	0.374645
227	H	0.552167	0.103365	0.596733
228	N	0.478212	0.955458	0.627476
229	C	0.478952	0.956938	0.374061
230	N	0.490451	0.979937	0.412275
231	N	0.511064	0.02116	0.412235
232	H	0.449009	0.897052	0.404557
233	C	0.456843	0.912719	0.626979
234	H	0.449236	0.897505	0.596917
235	C	0.890181	0.445211	0.667258
236	C	0.913013	0.456629	0.626822
237	N	0.955755	0.478	0.627393
238	C	0.978535	0.489389	0.665793
239	C	0.957111	0.478677	0.373981
240	C	0.912812	0.456528	0.374485
241	H	0.897182	0.448712	0.404374
242	C	0.022912	0.511579	0.665836
243	C	0.111265	0.555754	0.334119
244	C	0.088574	0.544408	0.374645
245	H	0.897843	0.449042	0.596733
246	N	0.045751	0.522996	0.627476
247	C	0.044271	0.522257	0.374061
248	N	0.021272	0.510757	0.412275
249	N	0.980047	0.490145	0.412235
250	H	0.104159	0.5522	0.404557
251	C	0.088491	0.544368	0.626979
252	H	0.103706	0.551976	0.596917
253	C	0.355791	0.710616	0.667114
254	N	0.376192	0.688218	0.667118
255	C	0.355791	0.645419	0.667114
256	N	0.312992	0.625017	0.667118
257	C	0.290595	0.645419	0.667114
258	N	0.312993	0.688218	0.667118
259	C	0.378259	0.622949	0.667148
260	C	0.422908	0.64444	0.667178
261	C	0.44512	0.622354	0.667281
262	C	0.423237	0.577972	0.667358
263	C	0.378852	0.556087	0.667281
264	C	0.35677	0.578302	0.667178
265	C	0.37826	0.755552	0.667144
266	C	0.422909	0.778712	0.667174
267	C	0.445122	0.823009	0.667281
268	C	0.423237	0.845508	0.667358
269	C	0.378854	0.823009	0.667281
270	C	0.35677	0.778712	0.667178
271	C	0.245656	0.622949	0.667148
272	C	0.222498	0.64444	0.667178
273	C	0.178202	0.622357	0.667281
274	C	0.155701	0.577972	0.667358
275	C	0.178201	0.556087	0.667281
276	C	0.222499	0.578302	0.667174
277	H	0.477353	0.83868	0.667311
278	H	0.44	0.763621	0.667141
279	H	0.362293	0.83868	0.667311
280	H	0.324587	0.763621	0.667141
281	H	0.237589	0.676621	0.667141
282	H	0.162529	0.638916	0.667311
283	H	0.237589	0.561209	0.667141
284	H	0.162529	0.523856	0.667311
285	H	0.324586	0.561209	0.667141
286	H	0.362293	0.523856	0.667311
287	H	0.477353	0.638916	0.667311
288	H	0.439999	0.676621	0.667141
289	C	0.645658	0.290353	0.667148
290	N	0.625257	0.31275	0.667148
291	C	0.645659	0.355549	0.667148
292	N	0.688457	0.37595	0.667148
293	C	0.710856	0.355549	0.667148
294	N	0.688456	0.31275	0.667148
295	C	0.62319	0.378019	0.667128
296	C	0.578542	0.356528	0.667121
297	C	0.556329	0.37861	0.667128
298	C	0.578213	0.422993	0.667124
299	C	0.622597	0.444877	0.667128
300	C	0.644682	0.422666	0.667121
301	C	0.623189	0.245416	0.667128
302	C	0.578542	0.222258	0.667121
303	C	0.556328	0.177961	0.667128
304	C	0.578212	0.155462	0.667124
305	C	0.622596	0.177962	0.667128
306	C	0.644682	0.222258	0.667121
307	C	0.75579	0.378015	0.667128
308	C	0.778949	0.356528	0.667121
309	C	0.823247	0.37861	0.667128
310	C	0.845744	0.422993	0.667124
311	C	0.823247	0.444877	0.667124
312	C	0.77895	0.422666	0.667121
313	H	0.524098	0.162289	0.667154
314	H	0.561451	0.237349	0.667134
315	H	0.639157	0.16229	0.667154
316	H	0.676864	0.237349	0.667134
317	H	0.763857	0.324343	0.667134
318	H	0.838916	0.362049	0.667154
319	H	0.763859	0.439756	0.667134
320	H	0.838918	0.477109	0.667154
321	H	0.676863	0.439756	0.667134
322	H	0.639157	0.477109	0.667154
323	H	0.524096	0.362049	0.667154
324	H	0.561449	0.324343	0.667134
325	C	0.555997	0.445211	0.000589
326	C	0.54458	0.456629	0.960154
327	N	0.523211	0.478	0.960725
328	C	0.511818	0.489389	0.999125
329	C	0.52253	0.478677	0.707313
330	C	0.544682	0.456528	0.70782
331	H	0.552496	0.448712	0.737706
332	C	0.489631	0.511576	0.999168
333	C	0.445455	0.555754	0.667451
334	C	0.4568	0.544408	0.707977
335	H	0.552165	0.449042	0.930065
336	N	0.478211	0.522996	0.960808
337	C	0.478952	0.522257	0.707397
338	N	0.490451	0.510757	0.74561
339	N	0.511063	0.490145	0.74557
340	H	0.449007	0.5522	0.737889
341	C	0.456842	0.544368	0.960314
342	H	0.449234	0.551973	0.930249
343	C	0.555995	0.111026	0.000589
344	C	0.544581	0.088194	0.960154
345	N	0.523211	0.045453	0.960725
346	C	0.51182	0.022671	0.999125
347	C	0.522531	0.044095	0.707313
348	C	0.54468	0.088397	0.70782
349	H	0.552494	0.104025	0.737706
350	C	0.489632	0.978296	0.999168
351	C	0.445455	0.889944	0.667451
352	C	0.4568	0.912634	0.707977
353	H	0.552167	0.103365	0.930065
354	N	0.478212	0.955458	0.960808
355	C	0.478952	0.956938	0.707397
356	N	0.490451	0.979937	0.745607
357	N	0.511064	0.02116	0.74557
358	H	0.449009	0.897052	0.737889
359	C	0.456843	0.912719	0.960314
360	H	0.449236	0.897505	0.930249
361	C	0.890181	0.445211	0.00059
362	C	0.913013	0.456629	0.960154
363	N	0.955755	0.478	0.960725
364	C	0.978535	0.489389	0.999125
365	C	0.957111	0.478677	0.707313
366	C	0.912812	0.456528	0.70782
367	H	0.897182	0.448712	0.737706
368	C	0.022912	0.511579	0.999168
369	C	0.111265	0.555754	0.667451
370	C	0.088574	0.544408	0.707977
371	H	0.897843	0.449042	0.930065
372	N	0.045751	0.522996	0.960808
373	C	0.044271	0.522257	0.707397
374	N	0.021272	0.510757	0.745607
375	N	0.980047	0.490145	0.74557
376	H	0.104159	0.5522	0.737889
377	C	0.088491	0.544368	0.960314
378	H	0.103706	0.551976	0.930249
