data_C270H108N54O108_2018-02-15_10:38:42
#******************************************
#
# CIF file created by Zeo++
# Zeo++ is an open source package to
# analyze microporous materials
#
#*******************************************

_cell_length_a		30.6199   
_cell_length_b		30.6198   
_cell_length_c		29.5218   
_cell_angle_alpha		90   
_cell_angle_beta		90   
_cell_angle_gamma		120   

_symmetry_space_group_name_H-M		'P1'
_symmetry_Int_Tables_number		1
_symmetry_cell_setting		Monoclinic

loop_
_symmetry_equiv_pos_as_xyz
'+x,+y,+z'

loop_
_atom_site_label
_atom_site_type_symbol
_atom_site_fract_x
_atom_site_fract_y
_atom_site_fract_z
1	C	0.120043	0.561839	0.015078
2	H	0.128064	0.634809	0.014297
3	H	0.128002	0.496848	0.014364
4	C	0.038569	0.521051	0.054643
5	C	0.066092	0.534872	0.347014
6	C	0.038846	0.521292	0.305323
7	H	0.05713	0.53029	0.085045
8	N	0.062928	0.533367	0.262349
9	O	0.089137	0.580038	0.255792
10	O	0.089158	0.512935	0.255747
11	C	0.120043	0.561839	0.348413
12	H	0.128064	0.634809	0.347631
13	H	0.128002	0.496848	0.347698
14	C	0.038569	0.521051	0.387977
15	C	0.066092	0.534872	0.68035
16	C	0.038846	0.521292	0.638656
17	H	0.05713	0.53029	0.418378
18	N	0.062928	0.533367	0.595684
19	O	0.089137	0.580038	0.589126
20	O	0.089158	0.512935	0.589079
21	C	0.120043	0.561839	0.681746
22	H	0.128064	0.634809	0.680967
23	H	0.128002	0.496848	0.681031
24	C	0.038569	0.521051	0.72131
25	C	0.066092	0.534872	0.013682
26	C	0.038846	0.521292	0.971992
27	H	0.05713	0.53029	0.751711
28	N	0.062928	0.533367	0.929017
29	O	0.089137	0.580038	0.922459
30	O	0.089158	0.512935	0.922415
31	C	0.147236	0.615381	0.013819
32	C	0.147201	0.535449	0.013918
33	O	0.180448	0.485527	0.090323
34	O	0.180125	0.698714	0.089921
35	C	0.147236	0.615381	0.347153
36	C	0.147201	0.535449	0.347251
37	O	0.180448	0.485527	0.423656
38	O	0.180125	0.698714	0.423256
39	C	0.147236	0.615381	0.680486
40	C	0.147201	0.535449	0.680587
41	O	0.180448	0.485527	0.756992
42	O	0.180125	0.698714	0.756589
43	C	0.200253	0.56148	0.008703
44	C	0.225706	0.61463	0.005858
45	C	0.200298	0.642374	0.008667
46	C	0.230124	0.538039	0.00678
47	C	0.258139	0.545898	0.299856
48	H	0.248178	0.557189	0.270859
49	C	0.248606	0.527477	0.047313
50	N	0.22498	0.521703	0.090041
51	O	0.226004	0.561103	0.103629
52	C	0.258361	0.715786	0.299817
53	C	0.230197	0.695682	0.006675
54	C	0.248453	0.724859	0.047152
55	H	0.248646	0.694415	0.270899
56	N	0.224663	0.70709	0.089835
57	O	0.225662	0.66876	0.103607
58	C	0.200253	0.56148	0.342038
59	C	0.225706	0.61463	0.339189
60	C	0.200298	0.642374	0.342001
61	C	0.230124	0.538039	0.340114
62	C	0.258139	0.545898	0.633189
63	H	0.248178	0.557189	0.604193
64	C	0.248606	0.527477	0.380647
65	N	0.22498	0.521703	0.423375
66	O	0.226004	0.561103	0.436965
67	C	0.258361	0.715786	0.633151
68	C	0.230197	0.695682	0.340006
69	C	0.248453	0.724859	0.380488
70	H	0.248646	0.694415	0.604234
71	N	0.224663	0.70709	0.423168
72	O	0.225662	0.66876	0.436941
73	C	0.200253	0.56148	0.675371
74	C	0.225706	0.61463	0.672522
75	C	0.200298	0.642374	0.675334
76	C	0.230124	0.538039	0.673447
77	C	0.258139	0.545898	0.966525
78	H	0.248178	0.557189	0.937526
79	C	0.248606	0.527477	0.71398
80	N	0.22498	0.521703	0.756711
81	O	0.226004	0.561103	0.770297
82	C	0.258361	0.715786	0.966484
83	C	0.230197	0.695682	0.673339
84	C	0.248453	0.724859	0.713821
85	H	0.248646	0.694415	0.937567
86	N	0.224663	0.70709	0.756504
87	O	0.225662	0.66876	0.770274
88	H	0.264349	0.633934	0.003409
89	C	0.458422	0.642461	0.0089
90	C	0.405286	0.61477	0.005909
91	C	0.377547	0.561628	0.00878
92	C	0.404519	0.535539	0.013943
93	C	0.458065	0.561888	0.015154
94	C	0.48446	0.615437	0.014047
95	H	0.38509	0.496938	0.014292
96	H	0.523061	0.634839	0.014481
97	H	0.385988	0.634112	0.003372
98	C	0.3776	0.819653	0.008703
99	C	0.40535	0.794254	0.005811
100	C	0.458482	0.81966	0.008954
101	C	0.484508	0.872678	0.014487
102	C	0.458084	0.899773	0.016252
103	C	0.404574	0.87267	0.014256
104	H	0.523106	0.891876	0.015068
105	H	0.385177	0.891873	0.014702
106	H	0.386051	0.755623	0.003196
107	C	0.823681	0.454042	0.008772
108	C	0.798273	0.4009	0.005825
109	C	0.823721	0.373206	0.008774
110	C	0.876783	0.400225	0.01392
111	C	0.903938	0.453771	0.015121
112	C	0.876743	0.480119	0.013936
113	H	0.895969	0.380812	0.01437
114	H	0.895903	0.51872	0.014387
115	H	0.759635	0.381566	0.003342
116	C	0.565766	0.373254	0.008659
117	C	0.618918	0.400976	0.005831
118	C	0.646627	0.454121	0.008736
119	C	0.619616	0.480172	0.013874
120	C	0.566069	0.453797	0.015029
121	C	0.539698	0.400252	0.013806
122	H	0.639037	0.518773	0.014351
123	H	0.5011	0.380827	0.014235
124	H	0.638248	0.38166	0.003413
125	C	0.646696	0.196008	0.008523
126	C	0.61899	0.221438	0.005462
127	C	0.565854	0.196063	0.008475
128	C	0.539788	0.143029	0.013853
129	C	0.56613	0.115829	0.015168
130	C	0.619674	0.14297	0.013893
131	H	0.501193	0.123874	0.014481
132	H	0.639085	0.123783	0.014483
133	H	0.638333	0.260073	0.002884
134	C	0.957888	0.480757	0.347038
135	C	0.98543	0.494476	0.054653
136	H	0.966883	0.485161	0.085063
137	C	0.985113	0.494423	0.305334
138	N	0.961012	0.48242	0.262369
139	O	0.934794	0.502878	0.255838
140	O	0.934782	0.43576	0.255762
141	C	0.539092	0.480768	0.346984
142	C	0.525337	0.494517	0.054621
143	C	0.498783	0.521096	0.054651
144	C	0.485021	0.534894	0.347045
145	C	0.498633	0.521303	0.30533
146	H	0.489512	0.530358	0.085068
147	H	0.534614	0.485218	0.085016
148	C	0.525484	0.494423	0.3053
149	N	0.486603	0.533397	0.262376
150	N	0.537526	0.482401	0.262318
151	O	0.439938	0.512969	0.255797
152	O	0.517068	0.435737	0.255717
153	O	0.50706	0.580072	0.255841
154	O	0.584194	0.502836	0.255747
155	C	0.539129	0.061867	0.347451
156	C	0.526342	0.034712	0.055282
157	C	0.499787	0.981575	0.055695
158	C	0.485075	0.953737	0.348268
159	C	0.497681	0.980376	0.306478
160	H	0.491173	0.963252	0.086204
161	H	0.536305	0.053548	0.085543
162	C	0.524633	0.03426	0.305945
163	N	0.48247	0.951218	0.266136
164	N	0.535901	0.057966	0.262862
165	O	0.519389	0.958726	0.241999
166	O	0.582453	0.084224	0.255668
167	O	0.452364	0.958768	0.243105
168	O	0.51527	0.084057	0.256556
169	C	0.303947	0.546008	0.299813
170	C	0.324255	0.538277	0.006668
171	C	0.295274	0.527586	0.04728
172	H	0.32519	0.557362	0.270815
173	N	0.313145	0.521699	0.08996
174	O	0.351474	0.561077	0.103649
175	O	0.321526	0.485542	0.090133
176	C	0.481815	0.695757	0.006885
177	C	0.47438	0.71617	0.299951
178	C	0.47433	0.761898	0.299989
179	C	0.481862	0.789725	0.006949
180	C	0.492244	0.771243	0.047587
181	H	0.463187	0.771956	0.270962
182	H	0.463154	0.694962	0.270933
183	C	0.49219	0.724599	0.047557
184	N	0.497768	0.794737	0.09035
185	N	0.497809	0.706599	0.09027
186	O	0.45828	0.793617	0.103807
187	O	0.533958	0.698205	0.090623
188	O	0.533933	0.839266	0.090828
189	O	0.458346	0.668229	0.103761
190	C	0.324302	0.789722	0.006658
191	C	0.304108	0.761559	0.299805
192	H	0.325501	0.771213	0.27091
193	C	0.295079	0.771454	0.047137
194	N	0.312812	0.795254	0.089822
195	O	0.321111	0.839764	0.089927
196	O	0.351144	0.794288	0.103634
197	C	0.793762	0.477431	0.006712
198	C	0.765863	0.46979	0.299776
199	C	0.720119	0.469824	0.299804
200	C	0.699946	0.477559	0.00677
201	C	0.7289	0.488118	0.047358
202	H	0.698757	0.458322	0.27088
203	H	0.775608	0.45819	0.270848
204	C	0.775516	0.488129	0.047331
205	N	0.711025	0.493955	0.090052
206	N	0.799188	0.493899	0.090035
207	O	0.672646	0.454578	0.103666
208	O	0.843738	0.530033	0.090271
209	O	0.702679	0.530139	0.090265
210	O	0.7981	0.45448	0.103653
211	C	0.542339	0.319941	0.006617
212	C	0.55021	0.299864	0.299674
213	C	0.550308	0.254162	0.299639
214	C	0.542527	0.226026	0.006465
215	C	0.531786	0.244321	0.047055
216	H	0.561662	0.244295	0.270628
217	H	0.561547	0.321159	0.270703
218	C	0.531694	0.290891	0.047147
219	N	0.525861	0.220525	0.089719
220	N	0.525856	0.308687	0.089882
221	O	0.565203	0.221494	0.103398
222	O	0.489696	0.317065	0.090128
223	O	0.489648	0.176014	0.089879
224	O	0.565242	0.347028	0.103543
225	C	0.70001	0.225935	0.006573
226	C	0.720343	0.253825	0.299644
227	C	0.766031	0.299648	0.299731
228	C	0.793839	0.319896	0.006705
229	C	0.775395	0.290976	0.04732
230	H	0.776065	0.320899	0.270735
231	H	0.699137	0.24385	0.270625
232	C	0.728799	0.244343	0.047266
233	N	0.798928	0.308912	0.090073
234	N	0.710813	0.220676	0.08996
235	O	0.797756	0.347227	0.103605
236	O	0.702517	0.176168	0.090284
237	O	0.843497	0.317376	0.090459
238	O	0.672386	0.221666	0.103446
239	H	0.264349	0.633934	0.336741
240	C	0.458422	0.642461	0.342235
241	C	0.405286	0.61477	0.339244
242	C	0.377547	0.561628	0.342113
243	C	0.404519	0.535539	0.347278
244	C	0.458065	0.561888	0.348488
245	C	0.48446	0.615437	0.34738
246	H	0.38509	0.496938	0.347624
247	H	0.523061	0.634839	0.347814
248	H	0.385988	0.634112	0.336703
249	C	0.3776	0.819653	0.342038
250	C	0.40535	0.794254	0.339145
251	C	0.458482	0.81966	0.342289
252	C	0.484508	0.872678	0.34782
253	C	0.458084	0.899773	0.349585
254	C	0.404574	0.87267	0.34759
255	H	0.523106	0.891876	0.348403
256	H	0.385177	0.891873	0.348037
257	H	0.386051	0.755623	0.336529
258	C	0.823681	0.454042	0.342106
259	C	0.798273	0.4009	0.339156
260	C	0.823721	0.373206	0.342109
261	C	0.876783	0.400225	0.347255
262	C	0.903938	0.453771	0.348454
263	C	0.876743	0.480119	0.347272
264	H	0.895969	0.380812	0.347705
265	H	0.895903	0.51872	0.347722
266	H	0.759635	0.381566	0.336675
267	C	0.565766	0.373254	0.341994
268	C	0.618918	0.400976	0.339162
269	C	0.646627	0.454121	0.342069
270	C	0.619616	0.480172	0.347207
271	C	0.566069	0.453797	0.348362
272	C	0.539698	0.400252	0.34714
273	H	0.639037	0.518773	0.347685
274	H	0.5011	0.380827	0.34757
275	H	0.638248	0.38166	0.336745
276	C	0.646696	0.196008	0.341859
277	C	0.61899	0.221438	0.338797
278	C	0.565854	0.196063	0.341808
279	C	0.539788	0.143029	0.347187
280	C	0.56613	0.115829	0.348501
281	C	0.619674	0.14297	0.347228
282	H	0.501193	0.123874	0.347814
283	H	0.639085	0.123783	0.347817
284	H	0.638333	0.260073	0.336216
285	C	0.957888	0.480757	0.680371
286	C	0.98543	0.494476	0.387987
287	H	0.966883	0.485161	0.418395
288	C	0.985113	0.494423	0.638666
289	N	0.961012	0.48242	0.595701
290	O	0.934794	0.502878	0.58917
291	O	0.934782	0.43576	0.589096
292	C	0.539092	0.480768	0.680317
293	C	0.525337	0.494517	0.387953
294	C	0.498783	0.521096	0.387984
295	C	0.485021	0.534894	0.680377
296	C	0.498633	0.521303	0.638663
297	H	0.489512	0.530358	0.418402
298	H	0.534614	0.485218	0.418351
299	C	0.525484	0.494423	0.638632
300	N	0.486603	0.533397	0.595708
301	N	0.537526	0.482401	0.59565
302	O	0.439938	0.512969	0.58913
303	O	0.517068	0.435737	0.589052
304	O	0.50706	0.580072	0.589174
305	O	0.584194	0.502836	0.589082
306	C	0.539129	0.061867	0.680787
307	C	0.526342	0.034712	0.388617
308	C	0.499787	0.981575	0.389031
309	C	0.485075	0.953737	0.681604
310	C	0.497681	0.980376	0.639811
311	H	0.491173	0.963252	0.419537
312	H	0.536305	0.053548	0.418876
313	C	0.524633	0.03426	0.639279
314	N	0.48247	0.951218	0.599471
315	N	0.535901	0.057966	0.596196
316	O	0.519389	0.958726	0.575333
317	O	0.582453	0.084224	0.589001
318	O	0.452364	0.958768	0.576441
319	O	0.51527	0.084057	0.589889
320	C	0.303947	0.546008	0.633148
321	C	0.324255	0.538277	0.339999
322	C	0.295274	0.527586	0.380613
323	H	0.32519	0.557362	0.604149
324	N	0.313145	0.521699	0.423293
325	O	0.351474	0.561077	0.436981
326	O	0.321526	0.485542	0.423466
327	C	0.481815	0.695757	0.340216
328	C	0.47438	0.71617	0.633284
329	C	0.47433	0.761898	0.633324
330	C	0.481862	0.789725	0.34028
331	C	0.492244	0.771243	0.380921
332	H	0.463187	0.771956	0.604295
333	H	0.463154	0.694962	0.604268
334	C	0.49219	0.724599	0.380891
335	N	0.497768	0.794737	0.423683
336	N	0.497809	0.706599	0.423605
337	O	0.45828	0.793617	0.437141
338	O	0.533958	0.698205	0.423957
339	O	0.533933	0.839266	0.42416
340	O	0.458346	0.668229	0.437097
341	C	0.324302	0.789722	0.339989
342	C	0.304108	0.761559	0.633138
343	H	0.325501	0.771213	0.604244
344	C	0.295079	0.771454	0.380471
345	N	0.312812	0.795254	0.423154
346	O	0.321111	0.839764	0.423259
347	O	0.351144	0.794288	0.436968
348	C	0.793762	0.477431	0.340043
349	C	0.765863	0.46979	0.633111
350	C	0.720119	0.469824	0.633138
351	C	0.699946	0.477559	0.340101
352	C	0.7289	0.488118	0.380691
353	H	0.698757	0.458322	0.604214
354	H	0.775608	0.45819	0.60418
355	C	0.775516	0.488129	0.380664
356	N	0.711025	0.493955	0.423385
357	N	0.799188	0.493899	0.423368
358	O	0.672646	0.454578	0.436998
359	O	0.843738	0.530033	0.423605
360	O	0.702679	0.530139	0.423598
361	O	0.7981	0.45448	0.436988
362	C	0.542339	0.319941	0.339952
363	C	0.55021	0.299864	0.633006
364	C	0.550308	0.254162	0.632972
365	C	0.542527	0.226026	0.339796
366	C	0.531786	0.244321	0.380389
367	H	0.561662	0.244295	0.603963
368	H	0.561547	0.321159	0.604037
369	C	0.531694	0.290891	0.380481
370	N	0.525861	0.220525	0.423053
371	N	0.525856	0.308687	0.423215
372	O	0.565203	0.221494	0.436731
373	O	0.489696	0.317065	0.423463
374	O	0.489648	0.176014	0.423212
375	O	0.565242	0.347028	0.436876
376	C	0.70001	0.225935	0.339908
377	C	0.720343	0.253825	0.632979
378	C	0.766031	0.299648	0.633067
379	C	0.793839	0.319896	0.34004
380	C	0.775395	0.290976	0.380654
381	H	0.776065	0.320899	0.604068
382	H	0.699137	0.24385	0.60396
383	C	0.728799	0.244343	0.380599
384	N	0.798928	0.308912	0.423408
385	N	0.710813	0.220676	0.423293
386	O	0.797756	0.347227	0.436941
387	O	0.702517	0.176168	0.423618
388	O	0.843497	0.317376	0.423791
389	O	0.672386	0.221666	0.436782
390	H	0.264349	0.633934	0.670073
391	C	0.458422	0.642461	0.675567
392	C	0.405286	0.61477	0.672576
393	C	0.377547	0.561628	0.675449
394	C	0.404519	0.535539	0.680611
395	C	0.458065	0.561888	0.68182
396	C	0.48446	0.615437	0.680716
397	H	0.38509	0.496938	0.68096
398	H	0.523061	0.634839	0.68115
399	H	0.385988	0.634112	0.670036
400	C	0.3776	0.819653	0.675371
401	C	0.40535	0.794254	0.672478
402	C	0.458482	0.81966	0.675622
403	C	0.484508	0.872678	0.681153
404	C	0.458084	0.899773	0.682921
405	C	0.404574	0.87267	0.680923
406	H	0.523106	0.891876	0.681736
407	H	0.385177	0.891873	0.68137
408	H	0.386051	0.755623	0.669863
409	C	0.823681	0.454042	0.675439
410	C	0.798273	0.4009	0.672492
411	C	0.823721	0.373206	0.675442
412	C	0.876783	0.400225	0.680587
413	C	0.903938	0.453771	0.68179
414	C	0.876743	0.480119	0.680604
415	H	0.895969	0.380812	0.681038
416	H	0.895903	0.51872	0.681055
417	H	0.759635	0.381566	0.670009
418	C	0.565766	0.373254	0.675327
419	C	0.618918	0.400976	0.672499
420	C	0.646627	0.454121	0.675405
421	C	0.619616	0.480172	0.68054
422	C	0.566069	0.453797	0.681699
423	C	0.539698	0.400252	0.680472
424	H	0.639037	0.518773	0.681018
425	H	0.5011	0.380827	0.680903
426	H	0.638248	0.38166	0.670077
427	C	0.646696	0.196008	0.675191
428	C	0.61899	0.221438	0.672129
429	C	0.565854	0.196063	0.675144
430	C	0.539788	0.143029	0.68052
431	C	0.56613	0.115829	0.681834
432	C	0.619674	0.14297	0.68056
433	H	0.501193	0.123874	0.68115
434	H	0.639085	0.123783	0.68115
435	H	0.638333	0.260073	0.669548
436	C	0.957888	0.480757	0.013703
437	C	0.98543	0.494476	0.72132
438	H	0.966883	0.485161	0.751731
439	C	0.985113	0.494423	0.972002
440	N	0.961012	0.48242	0.929037
441	O	0.934794	0.502878	0.922507
442	O	0.934782	0.43576	0.922429
443	C	0.539092	0.480768	0.013649
444	C	0.525337	0.494517	0.72129
445	C	0.498783	0.521096	0.72132
446	C	0.485021	0.534894	0.013711
447	C	0.498633	0.521303	0.971999
448	H	0.489512	0.530358	0.751735
449	H	0.534614	0.485218	0.751684
450	C	0.525484	0.494423	0.971968
451	N	0.486603	0.533397	0.929044
452	N	0.537526	0.482401	0.928987
453	O	0.439938	0.512969	0.922466
454	O	0.517068	0.435737	0.922385
455	O	0.50706	0.580072	0.92251
456	O	0.584194	0.502836	0.922415
457	C	0.539129	0.061867	0.014119
458	C	0.526342	0.034712	0.72195
459	C	0.499787	0.981575	0.722363
460	C	0.485075	0.953737	0.014935
461	C	0.497681	0.980376	0.973144
462	H	0.491173	0.963252	0.752873
463	H	0.536305	0.053548	0.752209
464	C	0.524633	0.03426	0.972612
465	N	0.48247	0.951218	0.932804
466	N	0.535901	0.057966	0.929529
467	O	0.519389	0.958726	0.908666
468	O	0.582453	0.084224	0.922337
469	O	0.452364	0.958768	0.909774
470	O	0.51527	0.084057	0.923225
471	C	0.303947	0.546008	0.966481
472	C	0.324255	0.538277	0.673332
473	C	0.295274	0.527586	0.713949
474	H	0.32519	0.557362	0.937482
475	N	0.313145	0.521699	0.756629
476	O	0.351474	0.561077	0.770318
477	O	0.321526	0.485542	0.756802
478	C	0.481815	0.695757	0.673552
479	C	0.47438	0.71617	0.96662
480	C	0.47433	0.761898	0.966657
481	C	0.481862	0.789725	0.673613
482	C	0.492244	0.771243	0.714254
483	H	0.463187	0.771956	0.937631
484	H	0.463154	0.694962	0.937601
485	C	0.49219	0.724599	0.714224
486	N	0.497768	0.794737	0.757019
487	N	0.497809	0.706599	0.756938
488	O	0.45828	0.793617	0.770473
489	O	0.533958	0.698205	0.75729
490	O	0.533933	0.839266	0.757497
491	O	0.458346	0.668229	0.770429
492	C	0.324302	0.789722	0.673322
493	C	0.304108	0.761559	0.966474
494	H	0.325501	0.771213	0.937577
495	C	0.295079	0.771454	0.713804
496	N	0.312812	0.795254	0.756491
497	O	0.321111	0.839764	0.756596
498	O	0.351144	0.794288	0.770301
499	C	0.793762	0.477431	0.673379
500	C	0.765863	0.46979	0.966444
501	C	0.720119	0.469824	0.966471
502	C	0.699946	0.477559	0.673437
503	C	0.7289	0.488118	0.714027
504	H	0.698757	0.458322	0.93755
505	H	0.775608	0.45819	0.937516
506	C	0.775516	0.488129	0.714
507	N	0.711025	0.493955	0.756721
508	N	0.799188	0.493899	0.756704
509	O	0.672646	0.454578	0.770335
510	O	0.843738	0.530033	0.756938
511	O	0.702679	0.530139	0.756934
512	O	0.7981	0.45448	0.770321
513	C	0.542339	0.319941	0.673284
514	C	0.55021	0.299864	0.966342
515	C	0.550308	0.254162	0.966308
516	C	0.542527	0.226026	0.673129
517	C	0.531786	0.244321	0.713722
518	H	0.561662	0.244295	0.937296
519	H	0.561547	0.321159	0.93737
520	C	0.531694	0.290891	0.713814
521	N	0.525861	0.220525	0.756386
522	N	0.525856	0.308687	0.756548
523	O	0.565203	0.221494	0.770064
524	O	0.489696	0.317065	0.756795
525	O	0.489648	0.176014	0.756545
526	O	0.565242	0.347028	0.770209
527	C	0.70001	0.225935	0.67324
528	C	0.720343	0.253825	0.966311
529	C	0.766031	0.299648	0.9664
530	C	0.793839	0.319896	0.673373
531	C	0.775395	0.290976	0.713986
532	H	0.776065	0.320899	0.937404
533	H	0.699137	0.24385	0.937292
534	C	0.728799	0.244343	0.713932
535	N	0.798928	0.308912	0.756741
536	N	0.710813	0.220676	0.756629
537	O	0.797756	0.347227	0.770274
538	O	0.702517	0.176168	0.756951
539	O	0.843497	0.317376	0.757127
540	O	0.672386	0.221666	0.770114
