data_C324H180N108O36_2018-02-15_10:40:14
#******************************************
#
# CIF file created by Zeo++
# Zeo++ is an open source package to
# analyze microporous materials
#
#*******************************************

_cell_length_a		29.6956   
_cell_length_b		29.6956   
_cell_length_c		29.9726   
_cell_angle_alpha		90   
_cell_angle_beta		90   
_cell_angle_gamma		120   

_symmetry_space_group_name_H-M		'P1'
_symmetry_Int_Tables_number		1
_symmetry_cell_setting		Monoclinic

loop_
_symmetry_equiv_pos_as_xyz
'+x,+y,+z'

loop_
_atom_site_label
_atom_site_type_symbol
_atom_site_fract_x
_atom_site_fract_y
_atom_site_fract_z
1	C	0.111409	0.304873	0.003931
2	C	0.139337	0.36001	0.003846
3	C	0.194368	0.389725	0.003974
4	C	0.221577	0.361798	0.003923
5	C	0.196262	0.306766	0.003986
6	C	0.141125	0.279555	0.003859
7	H	0.261212	0.382436	0.005066
8	H	0.122128	0.23992	0.005
9	H	0.118698	0.379007	0.004934
10	C	0.390111	0.197712	0.012612
11	C	0.363363	0.142553	0.011572
12	C	0.308509	0.111033	0.012635
13	C	0.280094	0.137778	0.011611
14	C	0.30343	0.192634	0.012639
15	C	0.358591	0.221049	0.011602
16	H	0.240757	0.116295	0.008665
17	H	0.376444	0.260385	0.008642
18	H	0.384842	0.124699	0.008597
19	C	0.27404	0.218809	0.013098
20	N	0.298969	0.269679	0.333523
21	C	0.277641	0.30055	0.330244
22	C	0.224112	0.279309	0.00582
23	N	0.199391	0.228949	0.019652
24	C	0.220493	0.197791	0.024361
25	H	0.300519	0.337563	0.318871
26	C	0.188412	0.151363	0.048074
27	O	0.136846	0.124839	0.039032
28	N	0.204904	0.137723	0.085037
29	H	0.240318	0.158608	0.09601
30	H	0.180732	0.107596	0.102433
31	C	0.282331	0.055468	0.013121
32	N	0.231481	0.029537	0.333485
33	C	0.200625	0.47734	0.33014
34	C	0.221828	0.445035	0.005784
35	N	0.272147	0.470648	0.019727
36	C	0.303249	0.022894	0.024553
37	H	0.163578	0.463209	0.318856
38	C	0.349831	0.037381	0.04808
39	O	0.376136	0.012108	0.039061
40	N	0.36366	0.067644	0.084964
41	H	0.342634	0.08193	0.096123
42	H	0.393605	0.073273	0.102467
43	C	0.445676	0.227098	0.01306
44	N	0.471609	0.202166	0.333467
45	C	0.023808	0.223494	0.330164
46	C	0.0561	0.277028	0.005711
47	N	0.030469	0.301744	0.019579
48	C	0.478212	0.280647	0.024308
49	H	0.037939	0.200611	0.318794
50	C	0.463878	0.312732	0.048033
51	O	0.488918	0.364296	0.038987
52	N	0.433762	0.296244	0.085004
53	H	0.419236	0.260831	0.095978
54	H	0.427815	0.320419	0.102407
55	C	0.111409	0.304873	0.337265
56	C	0.139337	0.36001	0.337178
57	C	0.194368	0.389725	0.337305
58	C	0.221577	0.361798	0.337255
59	C	0.196262	0.306766	0.337319
60	C	0.141125	0.279555	0.337192
61	H	0.261212	0.382436	0.3384
62	H	0.122128	0.23992	0.338333
63	H	0.118698	0.379007	0.338266
64	C	0.390111	0.197712	0.345947
65	C	0.363363	0.142553	0.344906
66	C	0.308509	0.111033	0.345967
67	C	0.280094	0.137778	0.344946
68	C	0.30343	0.192634	0.34597
69	C	0.358591	0.221049	0.344936
70	H	0.240757	0.116295	0.341996
71	H	0.376444	0.260385	0.341976
72	H	0.384842	0.124699	0.34193
73	C	0.27404	0.218809	0.34643
74	N	0.298969	0.269679	0.666857
75	C	0.277641	0.30055	0.663577
76	C	0.224112	0.279309	0.339154
77	N	0.199391	0.228949	0.352983
78	C	0.220493	0.197791	0.357694
79	H	0.300519	0.337563	0.652203
80	C	0.188412	0.151363	0.381406
81	O	0.136846	0.124839	0.372364
82	N	0.204904	0.137723	0.418369
83	H	0.240318	0.158608	0.429343
84	H	0.180732	0.107596	0.435765
85	C	0.282331	0.055468	0.346454
86	N	0.231481	0.029537	0.666817
87	C	0.200625	0.47734	0.663474
88	C	0.221828	0.445035	0.339117
89	N	0.272147	0.470648	0.35306
90	C	0.303249	0.022894	0.357887
91	H	0.163578	0.463209	0.65219
92	C	0.349831	0.037381	0.381412
93	O	0.376136	0.012108	0.372394
94	N	0.36366	0.067644	0.418296
95	H	0.342634	0.08193	0.429456
96	H	0.393605	0.073273	0.435799
97	C	0.445676	0.227098	0.346394
98	N	0.471609	0.202166	0.6668
99	C	0.023808	0.223494	0.663497
100	C	0.0561	0.277028	0.339044
101	N	0.030469	0.301744	0.352913
102	C	0.478212	0.280647	0.357641
103	H	0.037939	0.200611	0.652127
104	C	0.463878	0.312732	0.381366
105	O	0.488918	0.364296	0.372321
106	N	0.433762	0.296244	0.418336
107	H	0.419236	0.260831	0.429313
108	H	0.427815	0.320419	0.435739
109	C	0.111409	0.304873	0.670597
110	C	0.139337	0.36001	0.670513
111	C	0.194368	0.389725	0.67064
112	C	0.221577	0.361798	0.67059
113	C	0.196262	0.306766	0.67065
114	C	0.141125	0.279555	0.670523
115	H	0.261212	0.382436	0.671731
116	H	0.122128	0.23992	0.671665
117	H	0.118698	0.379007	0.671598
118	C	0.390111	0.197712	0.679278
119	C	0.363363	0.142553	0.678237
120	C	0.308509	0.111033	0.679302
121	C	0.280094	0.137778	0.678277
122	C	0.30343	0.192634	0.679305
123	C	0.358591	0.221049	0.678267
124	H	0.240757	0.116295	0.675331
125	H	0.376444	0.260385	0.675308
126	H	0.384842	0.124699	0.675261
127	C	0.27404	0.218809	0.679765
128	N	0.298969	0.269679	0.000188
129	C	0.277641	0.30055	0.996909
130	C	0.224112	0.279309	0.672485
131	N	0.199391	0.228949	0.686318
132	C	0.220493	0.197791	0.691026
133	H	0.300519	0.337563	0.985535
134	C	0.188412	0.151363	0.714741
135	O	0.136846	0.124839	0.705699
136	N	0.204904	0.137723	0.751701
137	H	0.240318	0.158608	0.762674
138	H	0.180732	0.107596	0.7691
139	C	0.282331	0.055468	0.679785
140	N	0.231481	0.029537	0.000152
141	C	0.200625	0.47734	0.996805
142	C	0.221828	0.445035	0.672449
143	N	0.272147	0.470648	0.686391
144	C	0.303249	0.022894	0.691219
145	H	0.163578	0.463209	0.985522
146	C	0.349831	0.037381	0.714747
147	O	0.376136	0.012108	0.705726
148	N	0.36366	0.067644	0.751628
149	H	0.342634	0.08193	0.762788
150	H	0.393605	0.073273	0.769134
151	C	0.445676	0.227098	0.679725
152	N	0.471609	0.202166	0.000132
153	C	0.023808	0.223494	0.996829
154	C	0.0561	0.277028	0.672379
155	N	0.030469	0.301744	0.686245
156	C	0.478212	0.280647	0.690972
157	H	0.037939	0.200611	0.985458
158	C	0.463878	0.312732	0.714697
159	O	0.488918	0.364296	0.705652
160	N	0.433762	0.296244	0.751671
161	H	0.419236	0.260831	0.762644
162	H	0.427815	0.320419	0.769074
163	C	0.11141	0.804873	0.003931
164	C	0.139338	0.860011	0.003846
165	C	0.194369	0.889727	0.003974
166	C	0.221576	0.861796	0.003923
167	C	0.196263	0.806767	0.003986
168	C	0.141125	0.779555	0.003859
169	H	0.261212	0.882436	0.005066
170	H	0.122128	0.73992	0.005
171	H	0.118698	0.879006	0.004934
172	C	0.390111	0.697711	0.012612
173	C	0.363363	0.642553	0.011572
174	C	0.30851	0.611033	0.012635
175	C	0.280095	0.637778	0.011611
176	C	0.303431	0.692636	0.012639
177	C	0.358592	0.721049	0.011602
178	H	0.240757	0.616294	0.008665
179	H	0.376444	0.760385	0.008642
180	H	0.384841	0.624697	0.008597
181	C	0.27404	0.71881	0.013098
182	N	0.29897	0.769678	0.333523
183	C	0.27764	0.800549	0.330244
184	C	0.224113	0.77931	0.00582
185	N	0.199392	0.728951	0.019652
186	C	0.220494	0.697792	0.024361
187	H	0.30052	0.837563	0.318871
188	C	0.188413	0.651364	0.048074
189	O	0.136846	0.624837	0.039032
190	N	0.204904	0.637723	0.085037
191	H	0.240318	0.658608	0.09601
192	H	0.180733	0.607596	0.102433
193	C	0.282331	0.555467	0.013121
194	N	0.231483	0.529539	0.333485
195	C	0.200626	0.977342	0.33014
196	C	0.221827	0.945033	0.005784
197	N	0.272148	0.97065	0.019727
198	C	0.303248	0.522893	0.024553
199	H	0.163578	0.963207	0.318856
200	C	0.349832	0.537382	0.04808
201	O	0.376136	0.512107	0.039061
202	N	0.363661	0.567646	0.084964
203	H	0.342636	0.581932	0.096123
204	H	0.393606	0.573272	0.102467
205	C	0.445676	0.727096	0.01306
206	N	0.47161	0.702167	0.333467
207	C	0.023809	0.723495	0.330164
208	C	0.0561	0.777028	0.005711
209	N	0.03047	0.801743	0.019579
210	C	0.478212	0.780648	0.024308
211	H	0.037939	0.700612	0.318794
212	C	0.463879	0.812732	0.048033
213	O	0.488918	0.864296	0.038987
214	N	0.433762	0.796244	0.085004
215	H	0.419236	0.760832	0.095978
216	H	0.427816	0.820419	0.102407
217	C	0.11141	0.804873	0.337265
218	C	0.139338	0.860011	0.337178
219	C	0.194369	0.889727	0.337305
220	C	0.221576	0.861796	0.337255
221	C	0.196263	0.806767	0.337319
222	C	0.141125	0.779555	0.337192
223	H	0.261212	0.882436	0.3384
224	H	0.122128	0.73992	0.338333
225	H	0.118698	0.879006	0.338266
226	C	0.390111	0.697711	0.345947
227	C	0.363363	0.642553	0.344906
228	C	0.30851	0.611033	0.345967
229	C	0.280095	0.637778	0.344946
230	C	0.303431	0.692636	0.34597
231	C	0.358592	0.721049	0.344936
232	H	0.240757	0.616294	0.341996
233	H	0.376444	0.760385	0.341976
234	H	0.384841	0.624697	0.34193
235	C	0.27404	0.71881	0.34643
236	N	0.29897	0.769678	0.666857
237	C	0.27764	0.800549	0.663577
238	C	0.224113	0.77931	0.339154
239	N	0.199392	0.728951	0.352983
240	C	0.220494	0.697792	0.357694
241	H	0.30052	0.837563	0.652203
242	C	0.188413	0.651364	0.381406
243	O	0.136846	0.624837	0.372364
244	N	0.204904	0.637723	0.418369
245	H	0.240318	0.658608	0.429343
246	H	0.180733	0.607596	0.435765
247	C	0.282331	0.555467	0.346454
248	N	0.231483	0.529539	0.666817
249	C	0.200626	0.977342	0.663474
250	C	0.221827	0.945033	0.339117
251	N	0.272148	0.97065	0.35306
252	C	0.303248	0.522893	0.357887
253	H	0.163578	0.963207	0.65219
254	C	0.349832	0.537382	0.381412
255	O	0.376136	0.512107	0.372394
256	N	0.363661	0.567646	0.418296
257	H	0.342636	0.581932	0.429456
258	H	0.393606	0.573272	0.435799
259	C	0.445676	0.727096	0.346394
260	N	0.47161	0.702167	0.6668
261	C	0.023809	0.723495	0.663497
262	C	0.0561	0.777028	0.339044
263	N	0.03047	0.801743	0.352913
264	C	0.478212	0.780648	0.357641
265	H	0.037939	0.700612	0.652127
266	C	0.463879	0.812732	0.381366
267	O	0.488918	0.864296	0.372321
268	N	0.433762	0.796244	0.418336
269	H	0.419236	0.760832	0.429313
270	H	0.427816	0.820419	0.435739
271	C	0.11141	0.804873	0.670597
272	C	0.139338	0.860011	0.670513
273	C	0.194369	0.889727	0.67064
274	C	0.221576	0.861796	0.67059
275	C	0.196263	0.806767	0.67065
276	C	0.141125	0.779555	0.670523
277	H	0.261212	0.882436	0.671731
278	H	0.122128	0.73992	0.671665
279	H	0.118698	0.879006	0.671598
280	C	0.390111	0.697711	0.679278
281	C	0.363363	0.642553	0.678237
282	C	0.30851	0.611033	0.679302
283	C	0.280095	0.637778	0.678277
284	C	0.303431	0.692636	0.679305
285	C	0.358592	0.721049	0.678267
286	H	0.240757	0.616294	0.675331
287	H	0.376444	0.760385	0.675308
288	H	0.384841	0.624697	0.675261
289	C	0.27404	0.71881	0.679765
290	N	0.29897	0.769678	0.000188
291	C	0.27764	0.800549	0.996909
292	C	0.224113	0.77931	0.672485
293	N	0.199392	0.728951	0.686318
294	C	0.220494	0.697792	0.691026
295	H	0.30052	0.837563	0.985535
296	C	0.188413	0.651364	0.714741
297	O	0.136846	0.624837	0.705699
298	N	0.204904	0.637723	0.751701
299	H	0.240318	0.658608	0.762674
300	H	0.180733	0.607596	0.7691
301	C	0.282331	0.555467	0.679785
302	N	0.231483	0.529539	0.000152
303	C	0.200626	0.977342	0.996805
304	C	0.221827	0.945033	0.672449
305	N	0.272148	0.97065	0.686391
306	C	0.303248	0.522893	0.691219
307	H	0.163578	0.963207	0.985522
308	C	0.349832	0.537382	0.714747
309	O	0.376136	0.512107	0.705726
310	N	0.363661	0.567646	0.751628
311	H	0.342636	0.581932	0.762788
312	H	0.393606	0.573272	0.769134
313	C	0.445676	0.727096	0.679725
314	N	0.47161	0.702167	0.000132
315	C	0.023809	0.723495	0.996829
316	C	0.0561	0.777028	0.672379
317	N	0.03047	0.801743	0.686245
318	C	0.478212	0.780648	0.690972
319	H	0.037939	0.700612	0.985458
320	C	0.463879	0.812732	0.714697
321	O	0.488918	0.864296	0.705652
322	N	0.433762	0.796244	0.751671
323	H	0.419236	0.760832	0.762644
324	H	0.427816	0.820419	0.769074
325	C	0.611407	0.304873	0.003931
326	C	0.639336	0.36001	0.003846
327	C	0.694368	0.389725	0.003974
328	C	0.721575	0.361798	0.003923
329	C	0.696261	0.306766	0.003986
330	C	0.641125	0.279555	0.003859
331	H	0.761212	0.382436	0.005066
332	H	0.622126	0.23992	0.005
333	H	0.618699	0.379007	0.004934
334	C	0.890111	0.197712	0.012612
335	C	0.86336	0.142553	0.011572
336	C	0.80851	0.111033	0.012635
337	C	0.780092	0.137778	0.011611
338	C	0.803429	0.192634	0.012639
339	C	0.858592	0.221049	0.011602
340	H	0.740757	0.116295	0.008665
341	H	0.876445	0.260385	0.008642
342	H	0.884842	0.124699	0.008597
343	C	0.774038	0.218809	0.013098
344	N	0.798968	0.269679	0.333523
345	C	0.777641	0.30055	0.330244
346	C	0.724111	0.279309	0.00582
347	N	0.699389	0.228949	0.019652
348	C	0.720492	0.197791	0.024361
349	H	0.800518	0.337563	0.318871
350	C	0.688412	0.151363	0.048074
351	O	0.636845	0.124839	0.039032
352	N	0.704902	0.137723	0.085037
353	H	0.740318	0.158608	0.09601
354	H	0.680732	0.107596	0.102433
355	C	0.782331	0.055468	0.013121
356	N	0.731481	0.029537	0.333485
357	C	0.700624	0.47734	0.33014
358	C	0.721827	0.445035	0.005784
359	N	0.772148	0.470648	0.019727
360	C	0.803248	0.022894	0.024553
361	H	0.663578	0.463209	0.318856
362	C	0.84983	0.037381	0.04808
363	O	0.876136	0.012108	0.039061
364	N	0.863659	0.067644	0.084964
365	H	0.842633	0.08193	0.096123
366	H	0.893605	0.073273	0.102467
367	C	0.945675	0.227098	0.01306
368	N	0.971609	0.202166	0.333467
369	C	0.523808	0.223494	0.330164
370	C	0.556101	0.277028	0.005711
371	N	0.530467	0.301744	0.019579
372	C	0.978209	0.280647	0.024308
373	H	0.537939	0.200611	0.318794
374	C	0.963876	0.312732	0.048033
375	O	0.988918	0.364296	0.038987
376	N	0.933761	0.296244	0.085004
377	H	0.919236	0.260831	0.095978
378	H	0.927815	0.320419	0.102407
379	C	0.611407	0.304873	0.337265
380	C	0.639336	0.36001	0.337178
381	C	0.694368	0.389725	0.337305
382	C	0.721575	0.361798	0.337255
383	C	0.696261	0.306766	0.337319
384	C	0.641125	0.279555	0.337192
385	H	0.761212	0.382436	0.3384
386	H	0.622126	0.23992	0.338333
387	H	0.618699	0.379007	0.338266
388	C	0.890111	0.197712	0.345947
389	C	0.86336	0.142553	0.344906
390	C	0.80851	0.111033	0.345967
391	C	0.780092	0.137778	0.344946
392	C	0.803429	0.192634	0.34597
393	C	0.858592	0.221049	0.344936
394	H	0.740757	0.116295	0.341996
395	H	0.876445	0.260385	0.341976
396	H	0.884842	0.124699	0.34193
397	C	0.774038	0.218809	0.34643
398	N	0.798968	0.269679	0.666857
399	C	0.777641	0.30055	0.663577
400	C	0.724111	0.279309	0.339154
401	N	0.699389	0.228949	0.352983
402	C	0.720492	0.197791	0.357694
403	H	0.800518	0.337563	0.652203
404	C	0.688412	0.151363	0.381406
405	O	0.636845	0.124839	0.372364
406	N	0.704902	0.137723	0.418369
407	H	0.740318	0.158608	0.429343
408	H	0.680732	0.107596	0.435765
409	C	0.782331	0.055468	0.346454
410	N	0.731481	0.029537	0.666817
411	C	0.700624	0.47734	0.663474
412	C	0.721827	0.445035	0.339117
413	N	0.772148	0.470648	0.35306
414	C	0.803248	0.022894	0.357887
415	H	0.663578	0.463209	0.65219
416	C	0.84983	0.037381	0.381412
417	O	0.876136	0.012108	0.372394
418	N	0.863659	0.067644	0.418296
419	H	0.842633	0.08193	0.429456
420	H	0.893605	0.073273	0.435799
421	C	0.945675	0.227098	0.346394
422	N	0.971609	0.202166	0.6668
423	C	0.523808	0.223494	0.663497
424	C	0.556101	0.277028	0.339044
425	N	0.530467	0.301744	0.352913
426	C	0.978209	0.280647	0.357641
427	H	0.537939	0.200611	0.652127
428	C	0.963876	0.312732	0.381366
429	O	0.988918	0.364296	0.372321
430	N	0.933761	0.296244	0.418336
431	H	0.919236	0.260831	0.429313
432	H	0.927815	0.320419	0.435739
433	C	0.611407	0.304873	0.670597
434	C	0.639336	0.36001	0.670513
435	C	0.694368	0.389725	0.67064
436	C	0.721575	0.361798	0.67059
437	C	0.696261	0.306766	0.67065
438	C	0.641125	0.279555	0.670523
439	H	0.761212	0.382436	0.671731
440	H	0.622126	0.23992	0.671665
441	H	0.618699	0.379007	0.671598
442	C	0.890111	0.197712	0.679278
443	C	0.86336	0.142553	0.678237
444	C	0.80851	0.111033	0.679302
445	C	0.780092	0.137778	0.678277
446	C	0.803429	0.192634	0.679305
447	C	0.858592	0.221049	0.678267
448	H	0.740757	0.116295	0.675331
449	H	0.876445	0.260385	0.675308
450	H	0.884842	0.124699	0.675261
451	C	0.774038	0.218809	0.679765
452	N	0.798968	0.269679	0.000188
453	C	0.777641	0.30055	0.996909
454	C	0.724111	0.279309	0.672485
455	N	0.699389	0.228949	0.686318
456	C	0.720492	0.197791	0.691026
457	H	0.800518	0.337563	0.985535
458	C	0.688412	0.151363	0.714741
459	O	0.636845	0.124839	0.705699
460	N	0.704902	0.137723	0.751701
461	H	0.740318	0.158608	0.762674
462	H	0.680732	0.107596	0.7691
463	C	0.782331	0.055468	0.679785
464	N	0.731481	0.029537	0.000152
465	C	0.700624	0.47734	0.996805
466	C	0.721827	0.445035	0.672449
467	N	0.772148	0.470648	0.686391
468	C	0.803248	0.022894	0.691219
469	H	0.663578	0.463209	0.985522
470	C	0.84983	0.037381	0.714747
471	O	0.876136	0.012108	0.705726
472	N	0.863659	0.067644	0.751628
473	H	0.842633	0.08193	0.762788
474	H	0.893605	0.073273	0.769134
475	C	0.945675	0.227098	0.679725
476	N	0.971609	0.202166	0.000132
477	C	0.523808	0.223494	0.996829
478	C	0.556101	0.277028	0.672379
479	N	0.530467	0.301744	0.686245
480	C	0.978209	0.280647	0.690972
481	H	0.537939	0.200611	0.985458
482	C	0.963876	0.312732	0.714697
483	O	0.988918	0.364296	0.705652
484	N	0.933761	0.296244	0.751671
485	H	0.919236	0.260831	0.762644
486	H	0.927815	0.320419	0.769074
487	C	0.611409	0.804873	0.003931
488	C	0.639337	0.860011	0.003846
489	C	0.694368	0.889727	0.003974
490	C	0.721575	0.861796	0.003923
491	C	0.696262	0.806767	0.003986
492	C	0.641124	0.779555	0.003859
493	H	0.761211	0.882436	0.005066
494	H	0.622127	0.73992	0.005
495	H	0.618697	0.879006	0.004934
496	C	0.890111	0.697711	0.012612
497	C	0.863364	0.642553	0.011572
498	C	0.80851	0.611033	0.012635
499	C	0.780095	0.637778	0.011611
500	C	0.80343	0.692636	0.012639
501	C	0.858592	0.721049	0.011602
502	H	0.740757	0.616294	0.008665
503	H	0.876444	0.760385	0.008642
504	H	0.884841	0.624697	0.008597
505	C	0.774039	0.71881	0.013098
506	N	0.798968	0.769678	0.333523
507	C	0.77764	0.800549	0.330244
508	C	0.724112	0.77931	0.00582
509	N	0.699391	0.728951	0.019652
510	C	0.720493	0.697792	0.024361
511	H	0.800518	0.837563	0.318871
512	C	0.688413	0.651364	0.048074
513	O	0.636845	0.624837	0.039032
514	N	0.704902	0.637723	0.085037
515	H	0.740318	0.658608	0.09601
516	H	0.680732	0.607596	0.102433
517	C	0.78233	0.555467	0.013121
518	N	0.731482	0.529539	0.333485
519	C	0.700626	0.977342	0.33014
520	C	0.721827	0.945033	0.005784
521	N	0.772148	0.97065	0.019727
522	C	0.803247	0.522893	0.024553
523	H	0.663577	0.963207	0.318856
524	C	0.849831	0.537382	0.04808
525	O	0.876135	0.512107	0.039061
526	N	0.86366	0.567646	0.084964
527	H	0.842633	0.581932	0.096123
528	H	0.893605	0.573272	0.102467
529	C	0.945675	0.727096	0.01306
530	N	0.97161	0.702167	0.333467
531	C	0.523808	0.723495	0.330164
532	C	0.5561	0.777028	0.005711
533	N	0.530468	0.801743	0.019579
534	C	0.978212	0.780648	0.024308
535	H	0.537939	0.700612	0.318794
536	C	0.963879	0.812732	0.048033
537	O	0.988918	0.864296	0.038987
538	N	0.93376	0.796244	0.085004
539	H	0.919237	0.760832	0.095978
540	H	0.927815	0.820419	0.102407
541	C	0.611409	0.804873	0.337265
542	C	0.639337	0.860011	0.337178
543	C	0.694368	0.889727	0.337305
544	C	0.721575	0.861796	0.337255
545	C	0.696262	0.806767	0.337319
546	C	0.641124	0.779555	0.337192
547	H	0.761211	0.882436	0.3384
548	H	0.622127	0.73992	0.338333
549	H	0.618697	0.879006	0.338266
550	C	0.890111	0.697711	0.345947
551	C	0.863364	0.642553	0.344906
552	C	0.80851	0.611033	0.345967
553	C	0.780095	0.637778	0.344946
554	C	0.80343	0.692636	0.34597
555	C	0.858592	0.721049	0.344936
556	H	0.740757	0.616294	0.341996
557	H	0.876444	0.760385	0.341976
558	H	0.884841	0.624697	0.34193
559	C	0.774039	0.71881	0.34643
560	N	0.798968	0.769678	0.666857
561	C	0.77764	0.800549	0.663577
562	C	0.724112	0.77931	0.339154
563	N	0.699391	0.728951	0.352983
564	C	0.720493	0.697792	0.357694
565	H	0.800518	0.837563	0.652203
566	C	0.688413	0.651364	0.381406
567	O	0.636845	0.624837	0.372364
568	N	0.704902	0.637723	0.418369
569	H	0.740318	0.658608	0.429343
570	H	0.680732	0.607596	0.435765
571	C	0.78233	0.555467	0.346454
572	N	0.731482	0.529539	0.666817
573	C	0.700626	0.977342	0.663474
574	C	0.721827	0.945033	0.339117
575	N	0.772148	0.97065	0.35306
576	C	0.803247	0.522893	0.357887
577	H	0.663577	0.963207	0.65219
578	C	0.849831	0.537382	0.381412
579	O	0.876135	0.512107	0.372394
580	N	0.86366	0.567646	0.418296
581	H	0.842633	0.581932	0.429456
582	H	0.893605	0.573272	0.435799
583	C	0.945675	0.727096	0.346394
584	N	0.97161	0.702167	0.6668
585	C	0.523808	0.723495	0.663497
586	C	0.5561	0.777028	0.339044
587	N	0.530468	0.801743	0.352913
588	C	0.978212	0.780648	0.357641
589	H	0.537939	0.700612	0.652127
590	C	0.963879	0.812732	0.381366
591	O	0.988918	0.864296	0.372321
592	N	0.93376	0.796244	0.418336
593	H	0.919237	0.760832	0.429313
594	H	0.927815	0.820419	0.435739
595	C	0.611409	0.804873	0.670597
596	C	0.639337	0.860011	0.670513
597	C	0.694368	0.889727	0.67064
598	C	0.721575	0.861796	0.67059
599	C	0.696262	0.806767	0.67065
600	C	0.641124	0.779555	0.670523
601	H	0.761211	0.882436	0.671731
602	H	0.622127	0.73992	0.671665
603	H	0.618697	0.879006	0.671598
604	C	0.890111	0.697711	0.679278
605	C	0.863364	0.642553	0.678237
606	C	0.80851	0.611033	0.679302
607	C	0.780095	0.637778	0.678277
608	C	0.80343	0.692636	0.679305
609	C	0.858592	0.721049	0.678267
610	H	0.740757	0.616294	0.675331
611	H	0.876444	0.760385	0.675308
612	H	0.884841	0.624697	0.675261
613	C	0.774039	0.71881	0.679765
614	N	0.798968	0.769678	0.000188
615	C	0.77764	0.800549	0.996909
616	C	0.724112	0.77931	0.672485
617	N	0.699391	0.728951	0.686318
618	C	0.720493	0.697792	0.691026
619	H	0.800518	0.837563	0.985535
620	C	0.688413	0.651364	0.714741
621	O	0.636845	0.624837	0.705699
622	N	0.704902	0.637723	0.751701
623	H	0.740318	0.658608	0.762674
624	H	0.680732	0.607596	0.7691
625	C	0.78233	0.555467	0.679785
626	N	0.731482	0.529539	0.000152
627	C	0.700626	0.977342	0.996805
628	C	0.721827	0.945033	0.672449
629	N	0.772148	0.97065	0.686391
630	C	0.803247	0.522893	0.691219
631	H	0.663577	0.963207	0.985522
632	C	0.849831	0.537382	0.714747
633	O	0.876135	0.512107	0.705726
634	N	0.86366	0.567646	0.751628
635	H	0.842633	0.581932	0.762788
636	H	0.893605	0.573272	0.769134
637	C	0.945675	0.727096	0.679725
638	N	0.97161	0.702167	0.000132
639	C	0.523808	0.723495	0.996829
640	C	0.5561	0.777028	0.672379
641	N	0.530468	0.801743	0.686245
642	C	0.978212	0.780648	0.690972
643	H	0.537939	0.700612	0.985458
644	C	0.963879	0.812732	0.714697
645	O	0.988918	0.864296	0.705652
646	N	0.93376	0.796244	0.751671
647	H	0.919237	0.760832	0.762644
648	H	0.927815	0.820419	0.769074
