data_C288H180N108_2018-02-15_10:39:59
#******************************************
#
# CIF file created by Zeo++
# Zeo++ is an open source package to
# analyze microporous materials
#
#*******************************************

_cell_length_a		29.2147   
_cell_length_b		29.2147   
_cell_length_c		29.4768   
_cell_angle_alpha		90   
_cell_angle_beta		90   
_cell_angle_gamma		120   

_symmetry_space_group_name_H-M		'P1'
_symmetry_Int_Tables_number		1
_symmetry_cell_setting		Monoclinic

loop_
_symmetry_equiv_pos_as_xyz
'+x,+y,+z'

loop_
_atom_site_label
_atom_site_type_symbol
_atom_site_fract_x
_atom_site_fract_y
_atom_site_fract_z
1	C	0.123913	0.314175	0.009269
2	C	0.152149	0.370037	0.009286
3	C	0.152149	0.286551	0.00933
4	H	0.131887	0.246025	0.009206
5	H	0.131885	0.3903	0.009156
6	C	0.038969	0.271736	0.301679
7	C	0.068396	0.286416	0.008925
8	N	0.041245	0.272817	0.048693
9	H	0.057079	0.28081	0.270681
10	C	0.123913	0.314175	0.342605
11	C	0.152149	0.370037	0.342622
12	C	0.152149	0.286551	0.342662
13	H	0.131887	0.246025	0.34254
14	H	0.131885	0.3903	0.342489
15	C	0.038969	0.271736	0.635014
16	C	0.068396	0.286416	0.342259
17	N	0.041245	0.272817	0.382025
18	H	0.057079	0.28081	0.604013
19	C	0.123913	0.314175	0.675938
20	C	0.152149	0.370037	0.675955
21	C	0.152149	0.286551	0.675999
22	H	0.131887	0.246025	0.675873
23	H	0.131885	0.3903	0.675822
24	C	0.038969	0.271736	0.968347
25	C	0.068396	0.286416	0.675592
26	N	0.041245	0.272817	0.715362
27	H	0.057079	0.28081	0.93735
28	C	0.123914	0.814175	0.009269
29	C	0.152149	0.870036	0.009286
30	C	0.152151	0.786552	0.00933
31	H	0.131887	0.746023	0.009206
32	H	0.131887	0.8903	0.009156
33	C	0.03897	0.771738	0.301679
34	C	0.068397	0.786417	0.008925
35	N	0.041244	0.772817	0.048693
36	H	0.057079	0.780809	0.270681
37	C	0.123914	0.814175	0.342605
38	C	0.152149	0.870036	0.342622
39	C	0.152151	0.786552	0.342662
40	H	0.131887	0.746023	0.34254
41	H	0.131887	0.8903	0.342489
42	C	0.03897	0.771738	0.635014
43	C	0.068397	0.786417	0.342259
44	N	0.041244	0.772817	0.382025
45	H	0.057079	0.780809	0.604013
46	C	0.123914	0.814175	0.675938
47	C	0.152149	0.870036	0.675955
48	C	0.152151	0.786552	0.675999
49	H	0.131887	0.746023	0.675873
50	H	0.131887	0.8903	0.675822
51	C	0.03897	0.771738	0.968347
52	C	0.068397	0.786417	0.675592
53	N	0.041244	0.772817	0.715362
54	H	0.057079	0.780809	0.93735
55	C	0.20801	0.398274	0.009265
56	C	0.235635	0.370037	0.009312
57	C	0.208011	0.314176	0.009282
58	C	0.235769	0.286417	0.008932
59	H	0.241449	0.280792	0.270686
60	C	0.235769	0.45379	0.008926
61	H	0.241373	0.465118	0.270684
62	C	0.20801	0.398274	0.342598
63	C	0.235635	0.370037	0.342645
64	C	0.208011	0.314176	0.342615
65	C	0.235769	0.286417	0.342265
66	H	0.241449	0.280792	0.60402
67	C	0.235769	0.45379	0.342259
68	H	0.241373	0.465118	0.604017
69	C	0.20801	0.398274	0.675931
70	C	0.235635	0.370037	0.675978
71	C	0.208011	0.314176	0.675951
72	C	0.235769	0.286417	0.675598
73	H	0.241449	0.280792	0.937353
74	C	0.235769	0.45379	0.675595
75	H	0.241373	0.465118	0.93735
76	C	0.20801	0.898272	0.009265
77	C	0.235635	0.870036	0.009312
78	C	0.208011	0.814175	0.009282
79	C	0.235769	0.786417	0.008932
80	H	0.24145	0.780793	0.270686
81	C	0.235771	0.953792	0.008926
82	H	0.241375	0.96512	0.270684
83	C	0.20801	0.898272	0.342598
84	C	0.235635	0.870036	0.342645
85	C	0.208011	0.814175	0.342615
86	C	0.235769	0.786417	0.342265
87	H	0.24145	0.780793	0.60402
88	C	0.235771	0.953792	0.342259
89	H	0.241375	0.96512	0.604017
90	C	0.20801	0.898272	0.675931
91	C	0.235635	0.870036	0.675978
92	C	0.208011	0.814175	0.675951
93	C	0.235769	0.786417	0.675598
94	H	0.24145	0.780793	0.937353
95	C	0.235771	0.953792	0.675595
96	H	0.241375	0.96512	0.93735
97	H	0.250475	0.127458	0.009492
98	C	0.250496	0.271725	0.301682
99	N	0.249335	0.272827	0.048697
100	C	0.250448	0.483224	0.301684
101	N	0.249369	0.480936	0.048698
102	H	0.250475	0.127458	0.342825
103	C	0.250496	0.271725	0.635014
104	N	0.249335	0.272827	0.382029
105	C	0.250448	0.483224	0.635017
106	N	0.249369	0.480936	0.382032
107	H	0.250475	0.127458	0.676158
108	C	0.250496	0.271725	0.96835
109	N	0.249335	0.272827	0.715365
110	C	0.250448	0.483224	0.96835
111	N	0.249369	0.480936	0.715365
112	H	0.250475	0.627457	0.009492
113	C	0.250498	0.771726	0.301682
114	N	0.249334	0.772825	0.048697
115	C	0.25045	0.983226	0.301683
116	N	0.249369	0.980934	0.048698
117	H	0.250475	0.627457	0.342825
118	C	0.250498	0.771726	0.635014
119	N	0.249334	0.772825	0.382029
120	C	0.25045	0.983226	0.635017
121	N	0.249369	0.980934	0.382032
122	H	0.250475	0.627457	0.676158
123	C	0.250498	0.771726	0.96835
124	N	0.249334	0.772825	0.715365
125	C	0.25045	0.983226	0.96835
126	N	0.249369	0.980934	0.715365
127	H	0.276162	0.390301	0.009192
128	C	0.402704	0.203572	0.008572
129	C	0.37447	0.147715	0.008775
130	C	0.318614	0.119483	0.008595
131	C	0.29099	0.147715	0.008731
132	C	0.318613	0.203571	0.008558
133	C	0.37447	0.231194	0.008714
134	H	0.394727	0.27171	0.009465
135	H	0.394727	0.127457	0.009531
136	C	0.290854	0.231335	0.010589
137	N	0.277283	0.244936	0.304104
138	C	0.27622	0.245943	0.051727
139	N	0.287265	0.234887	0.093578
140	H	0.306316	0.215847	0.097808
141	H	0.276207	0.245937	0.120586
142	C	0.290848	0.063958	0.010612
143	N	0.277237	0.0368	0.30412
144	C	0.27625	0.034703	0.051742
145	N	0.287307	0.056792	0.093598
146	H	0.306339	0.09488	0.097836
147	H	0.276258	0.034675	0.1206
148	C	0.458229	0.231337	0.010596
149	N	0.485394	0.244947	0.304108
150	C	0.487477	0.245936	0.05173
151	N	0.465382	0.23488	0.093583
152	H	0.427291	0.21585	0.097817
153	H	0.487491	0.24593	0.120589
154	H	0.276162	0.390301	0.342527
155	C	0.402704	0.203572	0.341906
156	C	0.37447	0.147715	0.342109
157	C	0.318614	0.119483	0.34193
158	C	0.29099	0.147715	0.342065
159	C	0.318613	0.203571	0.341892
160	C	0.37447	0.231194	0.342045
161	H	0.394727	0.27171	0.342798
162	H	0.394727	0.127457	0.342866
163	C	0.290854	0.231335	0.343924
164	N	0.277283	0.244936	0.637436
165	C	0.27622	0.245943	0.385062
166	N	0.287265	0.234887	0.426912
167	H	0.306316	0.215847	0.431142
168	H	0.276207	0.245937	0.453919
169	C	0.290848	0.063958	0.343945
170	N	0.277237	0.0368	0.637453
171	C	0.27625	0.034703	0.385075
172	N	0.287307	0.056792	0.426932
173	H	0.306339	0.09488	0.431169
174	H	0.276258	0.034675	0.453933
175	C	0.458229	0.231337	0.343931
176	N	0.485394	0.244947	0.637443
177	C	0.487477	0.245936	0.385065
178	N	0.465382	0.23488	0.426918
179	H	0.427291	0.21585	0.431152
180	H	0.487491	0.24593	0.453923
181	H	0.276162	0.390301	0.67586
182	C	0.402704	0.203572	0.675239
183	C	0.37447	0.147715	0.675442
184	C	0.318614	0.119483	0.675263
185	C	0.29099	0.147715	0.675398
186	C	0.318613	0.203571	0.675225
187	C	0.37447	0.231194	0.675378
188	H	0.394727	0.27171	0.676134
189	H	0.394727	0.127457	0.676199
190	C	0.290854	0.231335	0.677257
191	N	0.277283	0.244936	0.970773
192	C	0.27622	0.245943	0.718395
193	N	0.287265	0.234887	0.760245
194	H	0.306316	0.215847	0.764475
195	H	0.276207	0.245937	0.787252
196	C	0.290848	0.063958	0.677278
197	N	0.277237	0.0368	0.970786
198	C	0.27625	0.034703	0.718408
199	N	0.287307	0.056792	0.760265
200	H	0.306339	0.09488	0.764502
201	H	0.276258	0.034675	0.787266
202	C	0.458229	0.231337	0.677264
203	N	0.485394	0.244947	0.970776
204	C	0.487477	0.245936	0.718398
205	N	0.465382	0.23488	0.760251
206	H	0.427291	0.21585	0.764485
207	H	0.487491	0.24593	0.787256
208	H	0.276162	0.8903	0.009192
209	C	0.402704	0.70357	0.008572
210	C	0.37447	0.647714	0.008775
211	C	0.318614	0.619481	0.008595
212	C	0.29099	0.647714	0.008731
213	C	0.318613	0.70357	0.008558
214	C	0.37447	0.731193	0.008714
215	H	0.394728	0.77171	0.009465
216	H	0.394728	0.627457	0.009531
217	C	0.290855	0.731336	0.010589
218	N	0.277284	0.744936	0.304104
219	C	0.276221	0.745944	0.051727
220	N	0.287265	0.734885	0.093578
221	H	0.306316	0.715846	0.097808
222	H	0.276207	0.745936	0.120586
223	C	0.290848	0.563957	0.010612
224	N	0.277237	0.5368	0.30412
225	C	0.27625	0.534701	0.051742
226	N	0.287308	0.556791	0.093598
227	H	0.30634	0.594881	0.097836
228	H	0.276257	0.534673	0.1206
229	C	0.458228	0.731336	0.010596
230	N	0.485394	0.744948	0.304108
231	C	0.487477	0.745936	0.05173
232	N	0.465382	0.734881	0.093583
233	H	0.427292	0.71585	0.097817
234	H	0.487494	0.745932	0.120589
235	H	0.276162	0.8903	0.342527
236	C	0.402704	0.70357	0.341906
237	C	0.37447	0.647714	0.342109
238	C	0.318614	0.619481	0.34193
239	C	0.29099	0.647714	0.342065
240	C	0.318613	0.70357	0.341892
241	C	0.37447	0.731193	0.342045
242	H	0.394728	0.77171	0.342798
243	H	0.394728	0.627457	0.342866
244	C	0.290855	0.731336	0.343924
245	N	0.277284	0.744936	0.637436
246	C	0.276221	0.745944	0.385062
247	N	0.287265	0.734885	0.426912
248	H	0.306316	0.715846	0.431142
249	H	0.276207	0.745936	0.453919
250	C	0.290848	0.563957	0.343945
251	N	0.277237	0.5368	0.637453
252	C	0.27625	0.534701	0.385075
253	N	0.287308	0.556791	0.426932
254	H	0.30634	0.594881	0.431169
255	H	0.276257	0.534673	0.453933
256	C	0.458228	0.731336	0.343931
257	N	0.485394	0.744948	0.637443
258	C	0.487477	0.745936	0.385065
259	N	0.465382	0.734881	0.426918
260	H	0.427292	0.71585	0.431152
261	H	0.487494	0.745932	0.453923
262	H	0.276162	0.8903	0.67586
263	C	0.402704	0.70357	0.675239
264	C	0.37447	0.647714	0.675442
265	C	0.318614	0.619481	0.675263
266	C	0.29099	0.647714	0.675398
267	C	0.318613	0.70357	0.675225
268	C	0.37447	0.731193	0.675378
269	H	0.394728	0.77171	0.676131
270	H	0.394728	0.627457	0.676199
271	C	0.290855	0.731336	0.677257
272	N	0.277284	0.744936	0.970773
273	C	0.276221	0.745944	0.718395
274	N	0.287265	0.734885	0.760245
275	H	0.306316	0.715846	0.764475
276	H	0.276207	0.745936	0.787252
277	C	0.290848	0.563957	0.677278
278	N	0.277237	0.5368	0.970786
279	C	0.27625	0.534701	0.718408
280	N	0.287308	0.556791	0.760265
281	H	0.30634	0.594881	0.764502
282	H	0.276257	0.534673	0.787269
283	C	0.458228	0.731336	0.677264
284	N	0.485394	0.744948	0.970776
285	C	0.487477	0.745936	0.718398
286	N	0.465382	0.734881	0.760251
287	H	0.427292	0.71585	0.764485
288	H	0.487494	0.745932	0.787256
289	C	0.623911	0.314175	0.009269
290	C	0.65215	0.370037	0.009286
291	C	0.708012	0.398274	0.009265
292	C	0.735636	0.370037	0.009312
293	C	0.70801	0.314176	0.009282
294	C	0.65215	0.286551	0.00933
295	H	0.776163	0.390301	0.009192
296	H	0.631887	0.246025	0.009206
297	H	0.631886	0.3903	0.009156
298	C	0.902705	0.203572	0.008572
299	C	0.874469	0.147715	0.008775
300	C	0.818613	0.119483	0.008595
301	C	0.79099	0.147715	0.008731
302	C	0.818613	0.203571	0.008558
303	C	0.874469	0.231194	0.008714
304	H	0.750476	0.127458	0.009492
305	H	0.894727	0.27171	0.009465
306	H	0.894728	0.127457	0.009531
307	C	0.790855	0.231335	0.010589
308	N	0.777282	0.244936	0.304104
309	C	0.750495	0.271725	0.301682
310	C	0.735771	0.286417	0.008932
311	N	0.749335	0.272827	0.048697
312	C	0.776218	0.245943	0.051727
313	H	0.74145	0.280792	0.270686
314	N	0.787264	0.234887	0.093578
315	H	0.806316	0.215847	0.097808
316	H	0.776209	0.245937	0.120586
317	C	0.790847	0.063958	0.010612
318	N	0.777237	0.0368	0.30412
319	C	0.750449	0.483224	0.301684
320	C	0.73577	0.45379	0.008926
321	N	0.74937	0.480936	0.048698
322	C	0.77625	0.034703	0.051742
323	H	0.741372	0.465118	0.270684
324	N	0.787308	0.056792	0.093598
325	H	0.806339	0.09488	0.097836
326	H	0.776257	0.034675	0.1206
327	C	0.958228	0.231337	0.010596
328	N	0.985392	0.244947	0.304108
329	C	0.538971	0.271736	0.301679
330	C	0.568395	0.286416	0.008925
331	N	0.541246	0.272817	0.048693
332	C	0.987478	0.245936	0.05173
333	H	0.557079	0.28081	0.270681
334	N	0.96538	0.23488	0.093583
335	H	0.92729	0.21585	0.097817
336	H	0.987493	0.24593	0.120589
337	C	0.623911	0.314175	0.342605
338	C	0.65215	0.370037	0.342622
339	C	0.708012	0.398274	0.342598
340	C	0.735636	0.370037	0.342645
341	C	0.70801	0.314176	0.342615
342	C	0.65215	0.286551	0.342662
343	H	0.776163	0.390301	0.342527
344	H	0.631887	0.246025	0.34254
345	H	0.631886	0.3903	0.342489
346	C	0.902705	0.203572	0.341906
347	C	0.874469	0.147715	0.342109
348	C	0.818613	0.119483	0.34193
349	C	0.79099	0.147715	0.342065
350	C	0.818613	0.203571	0.341892
351	C	0.874469	0.231194	0.342045
352	H	0.750476	0.127458	0.342825
353	H	0.894727	0.27171	0.342798
354	H	0.894728	0.127457	0.342866
355	C	0.790855	0.231335	0.343924
356	N	0.777282	0.244936	0.637436
357	C	0.750495	0.271725	0.635014
358	C	0.735771	0.286417	0.342265
359	N	0.749335	0.272827	0.382029
360	C	0.776218	0.245943	0.385062
361	H	0.74145	0.280792	0.60402
362	N	0.787264	0.234887	0.426912
363	H	0.806316	0.215847	0.431142
364	H	0.776209	0.245937	0.453919
365	C	0.790847	0.063958	0.343945
366	N	0.777237	0.0368	0.637453
367	C	0.750449	0.483224	0.635017
368	C	0.73577	0.45379	0.342259
369	N	0.74937	0.480936	0.382032
370	C	0.77625	0.034703	0.385075
371	H	0.741372	0.465118	0.604017
372	N	0.787308	0.056792	0.426932
373	H	0.806339	0.09488	0.431169
374	H	0.776257	0.034675	0.453933
375	C	0.958228	0.231337	0.343931
376	N	0.985392	0.244947	0.637443
377	C	0.538971	0.271736	0.635014
378	C	0.568395	0.286416	0.342259
379	N	0.541246	0.272817	0.382025
380	C	0.987478	0.245936	0.385065
381	H	0.557079	0.28081	0.604013
382	N	0.96538	0.23488	0.426918
383	H	0.92729	0.21585	0.431152
384	H	0.987493	0.24593	0.453923
385	C	0.623911	0.314175	0.675938
386	C	0.65215	0.370037	0.675955
387	C	0.708012	0.398274	0.675931
388	C	0.735636	0.370037	0.675978
389	C	0.70801	0.314176	0.675951
390	C	0.65215	0.286551	0.675999
391	H	0.776163	0.390301	0.67586
392	H	0.631887	0.246025	0.675873
393	H	0.631886	0.3903	0.675822
394	C	0.902705	0.203572	0.675239
395	C	0.874469	0.147715	0.675442
396	C	0.818613	0.119483	0.675263
397	C	0.79099	0.147715	0.675398
398	C	0.818613	0.203571	0.675225
399	C	0.874469	0.231194	0.675378
400	H	0.750476	0.127458	0.676158
401	H	0.894727	0.27171	0.676134
402	H	0.894728	0.127457	0.676199
403	C	0.790855	0.231335	0.677257
404	N	0.777282	0.244936	0.970773
405	C	0.750495	0.271725	0.96835
406	C	0.735771	0.286417	0.675598
407	N	0.749335	0.272827	0.715365
408	C	0.776218	0.245943	0.718395
409	H	0.74145	0.280792	0.937353
410	N	0.787264	0.234887	0.760245
411	H	0.806316	0.215847	0.764475
412	H	0.776209	0.245937	0.787252
413	C	0.790847	0.063958	0.677278
414	N	0.777237	0.0368	0.970786
415	C	0.750449	0.483224	0.96835
416	C	0.73577	0.45379	0.675595
417	N	0.74937	0.480936	0.715365
418	C	0.77625	0.034703	0.718408
419	H	0.741372	0.465118	0.93735
420	N	0.787308	0.056792	0.760265
421	H	0.806339	0.09488	0.764502
422	H	0.776257	0.034675	0.787266
423	C	0.958228	0.231337	0.677264
424	N	0.985392	0.244947	0.970776
425	C	0.538971	0.271736	0.968347
426	C	0.568395	0.286416	0.675592
427	N	0.541246	0.272817	0.715362
428	C	0.987478	0.245936	0.718398
429	H	0.557079	0.28081	0.93735
430	N	0.96538	0.23488	0.760251
431	H	0.92729	0.21585	0.764485
432	H	0.987493	0.24593	0.787256
433	C	0.623914	0.814175	0.009269
434	C	0.652149	0.870036	0.009286
435	C	0.708011	0.898272	0.009265
436	C	0.735635	0.870036	0.009312
437	C	0.708011	0.814175	0.009282
438	C	0.652151	0.786552	0.00933
439	H	0.776163	0.8903	0.009192
440	H	0.631887	0.746023	0.009206
441	H	0.631887	0.8903	0.009156
442	C	0.902704	0.70357	0.008572
443	C	0.874471	0.647714	0.008775
444	C	0.818616	0.619481	0.008595
445	C	0.790989	0.647714	0.008731
446	C	0.818613	0.70357	0.008558
447	C	0.874472	0.731193	0.008714
448	H	0.750476	0.627457	0.009492
449	H	0.89473	0.77171	0.009465
450	H	0.894728	0.627457	0.009531
451	C	0.790856	0.731336	0.010589
452	N	0.777286	0.744936	0.304104
453	C	0.750499	0.771726	0.301682
454	C	0.73577	0.786417	0.008932
455	N	0.749334	0.772825	0.048697
456	C	0.776222	0.745944	0.051727
457	H	0.741451	0.780793	0.270686
458	N	0.787263	0.734885	0.093578
459	H	0.806315	0.715846	0.097808
460	H	0.776208	0.745936	0.120586
461	C	0.79085	0.563957	0.010612
462	N	0.777237	0.5368	0.30412
463	C	0.75045	0.983226	0.301683
464	C	0.735771	0.953792	0.008926
465	N	0.749369	0.980934	0.048698
466	C	0.776249	0.534701	0.051742
467	H	0.741375	0.96512	0.270684
468	N	0.787308	0.556791	0.093598
469	H	0.806339	0.594881	0.097836
470	H	0.776256	0.534673	0.1206
471	C	0.958227	0.731336	0.010596
472	N	0.985396	0.744948	0.304108
473	C	0.538971	0.771738	0.301679
474	C	0.568398	0.786417	0.008925
475	N	0.541245	0.772817	0.048693
476	C	0.987478	0.745936	0.05173
477	H	0.55708	0.780809	0.270681
478	N	0.965381	0.734881	0.093583
479	H	0.92729	0.71585	0.097817
480	H	0.987494	0.745932	0.120589
481	C	0.623914	0.814175	0.342605
482	C	0.652149	0.870036	0.342622
483	C	0.708011	0.898272	0.342598
484	C	0.735635	0.870036	0.342645
485	C	0.708011	0.814175	0.342615
486	C	0.652151	0.786552	0.342662
487	H	0.776163	0.8903	0.342527
488	H	0.631887	0.746023	0.34254
489	H	0.631887	0.8903	0.342489
490	C	0.902704	0.70357	0.341906
491	C	0.874471	0.647714	0.342109
492	C	0.818616	0.619481	0.34193
493	C	0.790989	0.647714	0.342065
494	C	0.818613	0.70357	0.341892
495	C	0.874472	0.731193	0.342045
496	H	0.750476	0.627457	0.342825
497	H	0.89473	0.77171	0.342798
498	H	0.894728	0.627457	0.342866
499	C	0.790856	0.731336	0.343924
500	N	0.777286	0.744936	0.637436
501	C	0.750499	0.771726	0.635014
502	C	0.73577	0.786417	0.342265
503	N	0.749334	0.772825	0.382029
504	C	0.776222	0.745944	0.385062
505	H	0.741451	0.780793	0.60402
506	N	0.787263	0.734885	0.426912
507	H	0.806315	0.715846	0.431142
508	H	0.776208	0.745936	0.453919
509	C	0.79085	0.563957	0.343945
510	N	0.777237	0.5368	0.637453
511	C	0.75045	0.983226	0.635017
512	C	0.735771	0.953792	0.342259
513	N	0.749369	0.980934	0.382032
514	C	0.776249	0.534701	0.385075
515	H	0.741375	0.96512	0.604017
516	N	0.787308	0.556791	0.426932
517	H	0.806339	0.594881	0.431169
518	H	0.776256	0.534673	0.453933
519	C	0.958227	0.731336	0.343931
520	N	0.985396	0.744948	0.637443
521	C	0.538971	0.771738	0.635014
522	C	0.568398	0.786417	0.342259
523	N	0.541245	0.772817	0.382025
524	C	0.987478	0.745936	0.385065
525	H	0.55708	0.780809	0.604013
526	N	0.965381	0.734881	0.426918
527	H	0.92729	0.71585	0.431152
528	H	0.987494	0.745932	0.453923
529	C	0.623914	0.814175	0.675938
530	C	0.652149	0.870036	0.675955
531	C	0.708011	0.898272	0.675931
532	C	0.735635	0.870036	0.675978
533	C	0.708011	0.814175	0.675951
534	C	0.652151	0.786552	0.675999
535	H	0.776163	0.8903	0.67586
536	H	0.631887	0.746023	0.675873
537	H	0.631887	0.8903	0.675822
538	C	0.902704	0.70357	0.675239
539	C	0.874471	0.647714	0.675442
540	C	0.818616	0.619481	0.675263
541	C	0.790989	0.647714	0.675398
542	C	0.818613	0.70357	0.675225
543	C	0.874472	0.731193	0.675378
544	H	0.750476	0.627457	0.676158
545	H	0.89473	0.77171	0.676131
546	H	0.894728	0.627457	0.676199
547	C	0.790856	0.731336	0.677257
548	N	0.777286	0.744936	0.970773
549	C	0.750499	0.771726	0.96835
550	C	0.73577	0.786417	0.675598
551	N	0.749334	0.772825	0.715365
552	C	0.776222	0.745944	0.718395
553	H	0.741451	0.780793	0.937353
554	N	0.787263	0.734885	0.760245
555	H	0.806315	0.715846	0.764475
556	H	0.776208	0.745936	0.787252
557	C	0.79085	0.563957	0.677278
558	N	0.777237	0.5368	0.970786
559	C	0.75045	0.983226	0.96835
560	C	0.735771	0.953792	0.675595
561	N	0.749369	0.980934	0.715365
562	C	0.776249	0.534701	0.718408
563	H	0.741375	0.96512	0.93735
564	N	0.787308	0.556791	0.760265
565	H	0.806339	0.594881	0.764502
566	H	0.776256	0.534673	0.787269
567	C	0.958227	0.731336	0.677264
568	N	0.985396	0.744948	0.970776
569	C	0.538971	0.771738	0.968347
570	C	0.568398	0.786417	0.675592
571	N	0.541245	0.772817	0.715362
572	C	0.987478	0.745936	0.718398
573	H	0.55708	0.780809	0.93735
574	N	0.965381	0.734881	0.760251
575	H	0.92729	0.71585	0.764485
576	H	0.987494	0.745932	0.787256
