data_C216H54N108O108_2018-02-15_10:38:06
#******************************************
#
# CIF file created by Zeo++
# Zeo++ is an open source package to
# analyze microporous materials
#
#*******************************************

_cell_length_a		30.2374   
_cell_length_b		30.2374   
_cell_length_c		29.415   
_cell_angle_alpha		90   
_cell_angle_beta		90   
_cell_angle_gamma		120   

_symmetry_space_group_name_H-M		'P1'
_symmetry_Int_Tables_number		1
_symmetry_cell_setting		Monoclinic

loop_
_symmetry_equiv_pos_as_xyz
'+x,+y,+z'

loop_
_atom_site_label
_atom_site_type_symbol
_atom_site_fract_x
_atom_site_fract_y
_atom_site_fract_z
1	N	0.150591	0.616538	0.010827
2	C	0.123848	0.564347	0.011471
3	N	0.149896	0.5382	0.010772
4	C	0.069673	0.537577	0.011579
5	C	0.041983	0.52378	0.052717
6	H	0.061372	0.533373	0.082926
7	C	0.041979	0.523792	0.303762
8	H	0.061366	0.533392	0.273541
9	N	0.150591	0.616538	0.344162
10	C	0.123848	0.564347	0.344804
11	N	0.149896	0.5382	0.344104
12	C	0.069673	0.537577	0.344913
13	C	0.041983	0.52378	0.386052
14	H	0.061372	0.533373	0.416258
15	C	0.041979	0.523792	0.637094
16	H	0.061366	0.533392	0.606875
17	N	0.150591	0.616538	0.677492
18	C	0.123848	0.564347	0.678138
19	N	0.149896	0.5382	0.677438
20	C	0.069673	0.537577	0.678247
21	C	0.041983	0.52378	0.719382
22	H	0.061372	0.533373	0.749591
23	C	0.041979	0.523792	0.970428
24	H	0.061366	0.533392	0.940205
25	C	0.202595	0.642391	0.009367
26	C	0.201893	0.563618	0.00933
27	N	0.227153	0.615297	0.008483
28	C	0.232449	0.54064	0.341816
29	H	0.241665	0.543665	0.079724
30	C	0.233967	0.695961	0.341925
31	N	0.239328	0.692261	0.258988
32	N	0.236784	0.695553	0.091894
33	O	0.225598	0.721566	0.11776
34	O	0.228878	0.717545	0.231522
35	C	0.202595	0.642391	0.342703
36	C	0.201893	0.563618	0.342666
37	N	0.227153	0.615297	0.341819
38	C	0.232449	0.54064	0.675146
39	H	0.241665	0.543665	0.413055
40	C	0.233967	0.695961	0.675255
41	N	0.239328	0.692261	0.592321
42	N	0.236784	0.695553	0.425226
43	O	0.225598	0.721566	0.451094
44	O	0.228878	0.717545	0.564855
45	C	0.202595	0.642391	0.676037
46	C	0.201893	0.563618	0.676
47	N	0.227153	0.615297	0.67515
48	C	0.232449	0.54064	0.00848
49	H	0.241665	0.543665	0.746389
50	C	0.233967	0.695961	0.008589
51	N	0.239328	0.692261	0.925655
52	N	0.236784	0.695553	0.75856
53	O	0.225598	0.721566	0.784427
54	O	0.228878	0.717545	0.898189
55	C	0.25811	0.543286	0.300937
56	C	0.305604	0.544581	0.300401
57	C	0.304089	0.541541	0.050157
58	H	0.244393	0.548992	0.270988
59	C	0.256426	0.540021	0.049521
60	O	0.303683	0.509429	0.11792
61	O	0.306839	0.515631	0.231596
62	C	0.305175	0.766582	0.300852
63	C	0.259003	0.719069	0.300423
64	C	0.257367	0.720997	0.050055
65	C	0.303426	0.76874	0.049345
66	O	0.270092	0.681393	0.240296
67	O	0.267207	0.685444	0.112322
68	C	0.25811	0.543286	0.634269
69	C	0.305604	0.544581	0.633735
70	C	0.304089	0.541541	0.383489
71	H	0.244393	0.548992	0.604322
72	C	0.256426	0.540021	0.382853
73	O	0.303683	0.509429	0.451253
74	O	0.306839	0.515631	0.56493
75	C	0.305175	0.766582	0.634184
76	C	0.259003	0.719069	0.633756
77	C	0.257367	0.720997	0.38339
78	C	0.303426	0.76874	0.382679
79	O	0.270092	0.681393	0.57363
80	O	0.267207	0.685444	0.445654
81	C	0.25811	0.543286	0.967603
82	C	0.305604	0.544581	0.967066
83	C	0.304089	0.541541	0.716822
84	H	0.244393	0.548992	0.937652
85	C	0.256426	0.540021	0.716187
86	O	0.303683	0.509429	0.784584
87	O	0.306839	0.515631	0.898261
88	C	0.305175	0.766582	0.967518
89	C	0.259003	0.719069	0.96709
90	C	0.257367	0.720997	0.71672
91	C	0.303426	0.76874	0.71601
92	O	0.270092	0.681393	0.906964
93	O	0.267207	0.685444	0.778988
94	C	0.38237	0.565076	0.009204
95	N	0.408238	0.538941	0.010767
96	C	0.460429	0.564401	0.011519
97	N	0.486564	0.616596	0.010866
98	C	0.461141	0.643163	0.009245
99	N	0.409461	0.616729	0.008327
100	C	0.459774	0.822298	0.009191
101	N	0.48593	0.874291	0.01105
102	C	0.460496	0.901049	0.01177
103	N	0.408306	0.875028	0.010884
104	C	0.38172	0.823047	0.009085
105	N	0.408125	0.797778	0.008123
106	C	0.827363	0.378049	0.009184
107	N	0.87934	0.404027	0.010849
108	C	0.905908	0.456211	0.011486
109	N	0.879749	0.482239	0.010717
110	C	0.827765	0.456677	0.009092
111	N	0.802655	0.405001	0.008191
112	C	0.646879	0.454328	0.009412
113	N	0.620893	0.480338	0.010754
114	C	0.568711	0.454725	0.011325
115	N	0.542683	0.40253	0.01069
116	C	0.56826	0.37611	0.009367
117	N	0.619936	0.402671	0.008558
118	C	0.570433	0.197518	0.009221
119	N	0.544454	0.145533	0.010837
120	C	0.570092	0.118991	0.011567
121	N	0.622283	0.145172	0.010883
122	C	0.648673	0.197153	0.009221
123	N	0.622092	0.222245	0.008283
124	C	0.987741	0.496804	0.053235
125	C	0.960272	0.483179	0.011568
126	C	0.987748	0.496823	0.303213
127	N	0.960364	0.483118	0.094785
128	N	0.960439	0.483175	0.261593
129	O	0.97012	0.454152	0.118006
130	O	0.970458	0.521878	0.238226
131	O	0.970382	0.521825	0.118135
132	O	0.970201	0.454229	0.238344
133	C	0.487221	0.537012	0.011581
134	C	0.501141	0.523184	0.052685
135	C	0.528152	0.495953	0.05314
136	C	0.541719	0.482102	0.011442
137	C	0.52796	0.495876	0.303121
138	H	0.491598	0.532987	0.082915
139	C	0.500941	0.523089	0.303733
140	H	0.491262	0.532838	0.273533
141	N	0.541924	0.482297	0.094666
142	N	0.541547	0.482209	0.261475
143	O	0.5709	0.521034	0.117862
144	O	0.502812	0.453484	0.238166
145	O	0.503263	0.453595	0.11806
146	O	0.570422	0.520916	0.238191
147	C	0.487895	0.955222	0.011855
148	C	0.50189	0.982969	0.052959
149	C	0.529081	0.037214	0.05341
150	C	0.54274	0.064626	0.011711
151	C	0.528809	0.037094	0.303388
152	H	0.492212	0.963623	0.083188
153	C	0.501611	0.982862	0.304004
154	H	0.491741	0.963433	0.273804
155	N	0.542849	0.064651	0.094928
156	N	0.54232	0.06434	0.261737
157	O	0.504174	0.05486	0.118233
158	O	0.570984	0.054348	0.23831
159	O	0.57165	0.054728	0.118214
160	O	0.503537	0.054493	0.238568
161	C	0.328768	0.54284	0.341918
162	N	0.332256	0.551485	0.258913
163	N	0.329679	0.54651	0.091931
164	O	0.343077	0.593034	0.240077
165	O	0.339939	0.587141	0.112254
166	C	0.484123	0.696702	0.341819
167	C	0.480561	0.719222	0.300939
168	C	0.479254	0.76541	0.3004
169	C	0.481944	0.790885	0.341853
170	C	0.484255	0.767991	0.050034
171	H	0.474215	0.699509	0.271072
172	C	0.485795	0.721853	0.04944
173	H	0.482702	0.703733	0.079692
174	N	0.471706	0.784759	0.258945
175	N	0.479949	0.788994	0.091829
176	O	0.429852	0.753885	0.240649
177	O	0.517448	0.800348	0.117355
178	O	0.507128	0.794933	0.231193
179	O	0.439659	0.758796	0.112687
180	C	0.3282	0.792504	0.341642
181	H	0.324627	0.780066	0.270884
182	H	0.321803	0.783537	0.079548
183	C	0.79708	0.479528	0.341629
184	C	0.77116	0.476362	0.3008
185	C	0.723576	0.474873	0.300404
186	C	0.700461	0.476721	0.341935
187	C	0.725568	0.478547	0.050084
188	H	0.784787	0.470585	0.270828
189	C	0.773434	0.480487	0.0494
190	H	0.788351	0.477057	0.079591
191	N	0.696691	0.46764	0.258998
192	N	0.700129	0.473724	0.09192
193	O	0.685941	0.426046	0.240297
194	O	0.726024	0.511075	0.117671
195	O	0.721838	0.503403	0.23152
196	O	0.690237	0.433336	0.112492
197	C	0.545423	0.322592	0.341816
198	C	0.548235	0.299681	0.300931
199	C	0.549723	0.253587	0.300392
200	C	0.547992	0.228688	0.341904
201	C	0.546474	0.25193	0.050153
202	H	0.553937	0.319123	0.270994
203	C	0.544795	0.297988	0.049522
204	H	0.548297	0.316328	0.079734
205	N	0.556782	0.233918	0.25892
206	N	0.551397	0.231265	0.091922
207	O	0.598316	0.264752	0.240123
208	O	0.514195	0.219973	0.117817
209	O	0.520926	0.223336	0.231563
210	O	0.591914	0.261679	0.112368
211	C	0.702175	0.227854	0.341731
212	C	0.724766	0.254018	0.300897
213	C	0.770848	0.301602	0.300367
214	C	0.796186	0.324452	0.341843
215	C	0.773321	0.299207	0.050003
216	H	0.705108	0.240605	0.271011
217	C	0.727292	0.251437	0.04936
218	H	0.709192	0.236363	0.079611
219	N	0.790197	0.328534	0.258925
220	N	0.794276	0.324534	0.091805
221	O	0.759246	0.339356	0.240559
222	O	0.805801	0.298499	0.117299
223	O	0.800578	0.303405	0.231216
224	O	0.763976	0.334457	0.112697
225	C	0.38237	0.565076	0.34254
226	N	0.408238	0.538941	0.3441
227	C	0.460429	0.564401	0.344852
228	N	0.486564	0.616596	0.344199
229	C	0.461141	0.643163	0.342577
230	N	0.409461	0.616729	0.341659
231	C	0.459774	0.822298	0.342526
232	N	0.48593	0.874291	0.344383
233	C	0.460496	0.901049	0.345103
234	N	0.408306	0.875028	0.344216
235	C	0.38172	0.823047	0.342421
236	N	0.408125	0.797778	0.341456
237	C	0.827363	0.378049	0.342516
238	N	0.87934	0.404027	0.344182
239	C	0.905908	0.456211	0.344818
240	N	0.879749	0.482239	0.344049
241	C	0.827765	0.456677	0.342428
242	N	0.802655	0.405001	0.341527
243	C	0.646879	0.454328	0.342744
244	N	0.620893	0.480338	0.344087
245	C	0.568711	0.454725	0.344658
246	N	0.542683	0.40253	0.344022
247	C	0.56826	0.37611	0.3427
248	N	0.619936	0.402671	0.341894
249	C	0.570433	0.197518	0.342554
250	N	0.544454	0.145533	0.344172
251	C	0.570092	0.118991	0.344899
252	N	0.622283	0.145172	0.344216
253	C	0.648673	0.197153	0.342557
254	N	0.622092	0.222245	0.341619
255	C	0.987741	0.496804	0.386569
256	C	0.960272	0.483179	0.344903
257	C	0.987748	0.496823	0.636547
258	N	0.960364	0.483118	0.428119
259	N	0.960439	0.483175	0.594925
260	O	0.97012	0.454152	0.451338
261	O	0.970458	0.521878	0.57156
262	O	0.970382	0.521825	0.451468
263	O	0.970201	0.454229	0.571675
264	C	0.487221	0.537012	0.344913
265	C	0.501141	0.523184	0.386018
266	C	0.528152	0.495953	0.386473
267	C	0.541719	0.482102	0.344777
268	C	0.52796	0.495876	0.636455
269	H	0.491598	0.532987	0.416247
270	C	0.500941	0.523089	0.637067
271	H	0.491262	0.532838	0.606865
272	N	0.541924	0.482297	0.428
273	N	0.541547	0.482209	0.59481
274	O	0.5709	0.521034	0.451196
275	O	0.502812	0.453484	0.571498
276	O	0.503263	0.453595	0.451393
277	O	0.570422	0.520916	0.571526
278	C	0.487895	0.955222	0.345188
279	C	0.50189	0.982969	0.386293
280	C	0.529081	0.037214	0.386742
281	C	0.54274	0.064626	0.345046
282	C	0.528809	0.037094	0.63672
283	H	0.492212	0.963623	0.416523
284	C	0.501611	0.982862	0.637339
285	H	0.491741	0.963433	0.607137
286	N	0.542849	0.064651	0.428262
287	N	0.54232	0.06434	0.595068
288	O	0.504174	0.05486	0.451566
289	O	0.570984	0.054348	0.571641
290	O	0.57165	0.054728	0.451546
291	O	0.503537	0.054493	0.571899
292	C	0.328768	0.54284	0.675248
293	N	0.332256	0.551485	0.592246
294	N	0.329679	0.54651	0.425263
295	O	0.343077	0.593034	0.573409
296	O	0.339939	0.587141	0.445586
297	C	0.484123	0.696702	0.675153
298	C	0.480561	0.719222	0.634272
299	C	0.479254	0.76541	0.633732
300	C	0.481944	0.790885	0.675187
301	C	0.484255	0.767991	0.383366
302	H	0.474215	0.699509	0.604407
303	C	0.485795	0.721853	0.382775
304	H	0.482702	0.703733	0.413025
305	N	0.471706	0.784759	0.592277
306	N	0.479949	0.788994	0.425161
307	O	0.429852	0.753885	0.573983
308	O	0.517448	0.800348	0.450689
309	O	0.507128	0.794933	0.564526
310	O	0.439659	0.758796	0.446021
311	C	0.3282	0.792504	0.674973
312	H	0.324627	0.780066	0.604216
313	H	0.321803	0.783537	0.412882
314	C	0.79708	0.479528	0.674963
315	C	0.77116	0.476362	0.634133
316	C	0.723576	0.474873	0.633739
317	C	0.700461	0.476721	0.675269
318	C	0.725568	0.478547	0.383417
319	H	0.784787	0.470585	0.604162
320	C	0.773434	0.480487	0.382734
321	H	0.788351	0.477057	0.412926
322	N	0.696691	0.46764	0.592331
323	N	0.700129	0.473724	0.425253
324	O	0.685941	0.426046	0.57363
325	O	0.726024	0.511075	0.451005
326	O	0.721838	0.503403	0.564852
327	O	0.690237	0.433336	0.445824
328	C	0.545423	0.322592	0.67515
329	C	0.548235	0.299681	0.634266
330	C	0.549723	0.253587	0.633725
331	C	0.547992	0.228688	0.675238
332	C	0.546474	0.25193	0.383485
333	H	0.553937	0.319123	0.604325
334	C	0.544795	0.297988	0.382856
335	H	0.548297	0.316328	0.413069
336	N	0.556782	0.233918	0.592253
337	N	0.551397	0.231265	0.425256
338	O	0.598316	0.264752	0.573456
339	O	0.514195	0.219973	0.451148
340	O	0.520926	0.223336	0.564896
341	O	0.591914	0.261679	0.445702
342	C	0.702175	0.227854	0.675065
343	C	0.724766	0.254018	0.634228
344	C	0.770848	0.301602	0.633701
345	C	0.796186	0.324452	0.675173
346	C	0.773321	0.299207	0.383336
347	H	0.705108	0.240605	0.604346
348	C	0.727292	0.251437	0.382693
349	H	0.709192	0.236363	0.412943
350	N	0.790197	0.328534	0.59226
351	N	0.794276	0.324534	0.425137
352	O	0.759246	0.339356	0.573892
353	O	0.805801	0.298499	0.450631
354	O	0.800578	0.303405	0.564549
355	O	0.763976	0.334457	0.446028
356	C	0.38237	0.565076	0.675874
357	N	0.408238	0.538941	0.677434
358	C	0.460429	0.564401	0.678186
359	N	0.486564	0.616596	0.677533
360	C	0.461141	0.643163	0.675911
361	N	0.409461	0.616729	0.674993
362	C	0.459774	0.822298	0.675857
363	N	0.48593	0.874291	0.677716
364	C	0.460496	0.901049	0.678437
365	N	0.408306	0.875028	0.67755
366	C	0.38172	0.823047	0.675751
367	N	0.408125	0.797778	0.674789
368	C	0.827363	0.378049	0.67585
369	N	0.87934	0.404027	0.677516
370	C	0.905908	0.456211	0.678152
371	N	0.879749	0.482239	0.677383
372	C	0.827765	0.456677	0.675762
373	N	0.802655	0.405001	0.674861
374	C	0.646879	0.454328	0.676078
375	N	0.620893	0.480338	0.677421
376	C	0.568711	0.454725	0.677992
377	N	0.542683	0.40253	0.677356
378	C	0.56826	0.37611	0.676034
379	N	0.619936	0.402671	0.675224
380	C	0.570433	0.197518	0.675887
381	N	0.544454	0.145533	0.677502
382	C	0.570092	0.118991	0.678233
383	N	0.622283	0.145172	0.67755
384	C	0.648673	0.197153	0.675891
385	N	0.622092	0.222245	0.674952
386	C	0.987741	0.496804	0.719902
387	C	0.960272	0.483179	0.678233
388	C	0.987748	0.496823	0.969881
389	N	0.960364	0.483118	0.761453
390	N	0.960439	0.483175	0.928259
391	O	0.97012	0.454152	0.784672
392	O	0.970458	0.521878	0.904893
393	O	0.970382	0.521825	0.784801
394	O	0.970201	0.454229	0.905009
395	C	0.487221	0.537012	0.678247
396	C	0.501141	0.523184	0.719352
397	C	0.528152	0.495953	0.719807
398	C	0.541719	0.482102	0.678107
399	C	0.52796	0.495876	0.969785
400	H	0.491598	0.532987	0.749581
401	C	0.500941	0.523089	0.970397
402	H	0.491262	0.532838	0.940198
403	N	0.541924	0.482297	0.76133
404	N	0.541547	0.482209	0.92814
405	O	0.5709	0.521034	0.784529
406	O	0.502812	0.453484	0.904832
407	O	0.503263	0.453595	0.784727
408	O	0.570422	0.520916	0.904856
409	C	0.487895	0.955222	0.678522
410	C	0.50189	0.982969	0.719624
411	C	0.529081	0.037214	0.720076
412	C	0.54274	0.064626	0.678376
413	C	0.528809	0.037094	0.970054
414	H	0.492212	0.963623	0.749853
415	C	0.501611	0.982862	0.970669
416	H	0.491741	0.963433	0.94047
417	N	0.542849	0.064651	0.761595
418	N	0.54232	0.06434	0.928402
419	O	0.504174	0.05486	0.7849
420	O	0.570984	0.054348	0.904975
421	O	0.57165	0.054728	0.78488
422	O	0.503537	0.054493	0.905233
423	C	0.328768	0.54284	0.008582
424	N	0.332256	0.551485	0.92558
425	N	0.329679	0.54651	0.758597
426	O	0.343077	0.593034	0.906743
427	O	0.339939	0.587141	0.77892
428	C	0.484123	0.696702	0.008487
429	C	0.480561	0.719222	0.967606
430	C	0.479254	0.76541	0.967066
431	C	0.481944	0.790885	0.008521
432	C	0.484255	0.767991	0.7167
433	H	0.474215	0.699509	0.937737
434	C	0.485795	0.721853	0.716105
435	H	0.482702	0.703733	0.746358
436	N	0.471706	0.784759	0.925611
437	N	0.479949	0.788994	0.758495
438	O	0.429852	0.753885	0.907314
439	O	0.517448	0.800348	0.784019
440	O	0.507128	0.794933	0.897859
441	O	0.439659	0.758796	0.779352
442	C	0.3282	0.792504	0.008307
443	H	0.324627	0.780066	0.93755
444	H	0.321803	0.783537	0.746212
445	C	0.79708	0.479528	0.008296
446	C	0.77116	0.476362	0.967467
447	C	0.723576	0.474873	0.967069
448	C	0.700461	0.476721	0.008602
449	C	0.725568	0.478547	0.716751
450	H	0.784787	0.470585	0.937492
451	C	0.773434	0.480487	0.716068
452	H	0.788351	0.477057	0.746256
453	N	0.696691	0.46764	0.925665
454	N	0.700129	0.473724	0.758587
455	O	0.685941	0.426046	0.906964
456	O	0.726024	0.511075	0.784336
457	O	0.721838	0.503403	0.898186
458	O	0.690237	0.433336	0.779158
459	C	0.545423	0.322592	0.00848
460	C	0.548235	0.299681	0.967596
461	C	0.549723	0.253587	0.967059
462	C	0.547992	0.228688	0.008568
463	C	0.546474	0.25193	0.716819
464	H	0.553937	0.319123	0.937659
465	C	0.544795	0.297988	0.716187
466	H	0.548297	0.316328	0.746399
467	N	0.556782	0.233918	0.925587
468	N	0.551397	0.231265	0.758587
469	O	0.598316	0.264752	0.90679
470	O	0.514195	0.219973	0.784482
471	O	0.520926	0.223336	0.89823
472	O	0.591914	0.261679	0.779036
473	C	0.702175	0.227854	0.008398
474	C	0.724766	0.254018	0.967562
475	C	0.770848	0.301602	0.967032
476	C	0.796186	0.324452	0.008507
477	C	0.773321	0.299207	0.716669
478	H	0.705108	0.240605	0.937676
479	C	0.727292	0.251437	0.716027
480	H	0.709192	0.236363	0.746277
481	N	0.790197	0.328534	0.92559
482	N	0.794276	0.324534	0.758471
483	O	0.759246	0.339356	0.907225
484	O	0.805801	0.298499	0.783965
485	O	0.800578	0.303405	0.897883
486	O	0.763976	0.334457	0.779362
