data_C432H288O12_2018-02-15_10:35:38
#******************************************
#
# CIF file created by Zeo++
# Zeo++ is an open source package to
# analyze microporous materials
#
#*******************************************

_cell_length_a		32.6452   
_cell_length_b		37.7684   
_cell_length_c		29.9992   
_cell_angle_alpha		91.313   
_cell_angle_beta		89.2405   
_cell_angle_gamma		90.0095   

_symmetry_space_group_name_H-M		'P1'
_symmetry_Int_Tables_number		1
_symmetry_cell_setting		Triclinic

loop_
_symmetry_equiv_pos_as_xyz
'+x,+y,+z'

loop_
_atom_site_label
_atom_site_type_symbol
_atom_site_fract_x
_atom_site_fract_y
_atom_site_fract_z
1	C	0.060186	0.999215	0.011136
2	C	0.080631	0.466481	0.016356
3	C	0.123212	0.461473	0.008894
4	C	0.146715	0.492182	0.999436
5	C	0.129441	0.026793	6.3e-05
6	C	0.086066	0.028768	0.003213
7	H	0.064128	0.445331	0.026967
8	O	0.184536	0.487845	0.979925
9	C	0.015523	0.001796	0.011192
10	C	0.989794	0.471993	0.003249
11	C	0.946492	0.473878	2.8e-05
12	C	0.929272	0.00847	0.999539
13	C	0.952609	0.039478	0.009039
14	C	0.994989	0.034714	0.016531
15	O	0.891946	0.012224	0.979985
16	H	0.011243	0.056223	0.02724
17	H	0.180227	0.985326	0.94759
18	H	0.89708	0.513656	0.947666
19	H	0.073382	0.052719	0.334129
20	H	0.003132	0.447479	0.334166
21	C	0.516314	0.250588	0.00023
22	C	0.492921	0.220792	0.31978
23	C	0.449798	0.221358	0.321669
24	C	0.428419	0.251924	0.00388
25	C	0.45167	0.28173	0.01762
26	C	0.494756	0.281097	0.015706
27	C	0.385857	0.253021	0.008067
28	C	0.359618	0.239794	0.311012
29	C	0.317299	0.242667	0.31539
30	C	0.298228	0.276204	0.319016
31	C	0.255071	0.279899	0.32103
32	C	0.231412	0.248454	0.319104
33	C	0.249204	0.214228	0.316724
34	C	0.29252	0.212004	0.314383
35	C	0.222745	0.184436	0.316848
36	C	0.23383	0.149195	0.990936
37	C	0.20689	0.119664	0.325678
38	C	0.220998	0.087791	0.009769
39	C	0.165957	0.120089	0.3106
40	C	0.14078	0.089862	0.312811
41	C	0.154606	0.05776	0.996772
42	C	0.195434	0.057984	0.012683
43	C	0.237961	0.31431	0.326041
44	C	0.195979	0.323624	0.991573
45	C	0.178793	0.357457	0.33212
46	C	0.200922	0.387472	0.014834
47	C	0.136731	0.362585	0.323348
48	C	0.118319	0.396141	0.328111
49	C	0.140867	0.426811	0.008258
50	C	0.182334	0.420948	0.019671
51	H	0.507122	0.198209	0.308111
52	H	0.434198	0.198959	0.312254
53	H	0.510265	0.302966	0.027118
54	H	0.437412	0.304219	0.029629
55	H	0.306524	0.187867	0.310918
56	H	0.316308	0.298418	0.319466
57	H	0.200283	0.250164	0.321846
58	H	0.23081	0.385319	0.023964
59	H	0.24996	0.08607	0.02229
60	H	0.206932	0.036713	0.028865
61	H	0.112404	0.091645	0.299124
62	H	0.154092	0.142011	0.296226
63	H	0.19963	0.441042	0.032942
64	H	0.08872	0.398363	0.317826
65	H	0.119156	0.342051	0.311502
66	H	0.263508	0.144708	0.999649
67	H	0.19209	0.189491	0.314866
68	H	0.374249	0.265511	0.034987
69	H	0.370517	0.227524	0.283664
70	H	0.176024	0.304018	0.98258
71	H	0.25823	0.334712	0.329885
72	C	0.560173	0.249587	0.000216
73	C	0.583901	0.278886	0.319754
74	C	0.626978	0.278396	0.321646
75	C	0.647976	0.248422	0.003838
76	C	0.624415	0.219101	0.017584
77	C	0.581373	0.219642	0.015671
78	C	0.690434	0.247525	0.008021
79	C	0.717421	0.259566	0.310981
80	C	0.75963	0.256846	0.315356
81	C	0.778612	0.223438	0.318971
82	C	0.821717	0.219818	0.321013
83	C	0.845428	0.251188	0.319061
84	C	0.827694	0.285331	0.316712
85	C	0.784436	0.287473	0.314373
86	C	0.854155	0.315126	0.316867
87	C	0.842783	0.350872	0.991176
88	C	0.869813	0.380212	0.325751
89	C	0.854866	0.413036	0.009796
90	C	0.911129	0.379226	0.310726
91	C	0.936248	0.409537	0.312919
92	C	0.921429	0.442787	0.996668
93	C	0.880199	0.443064	0.012536
94	C	0.838705	0.185589	0.326021
95	C	0.880639	0.176628	0.99139
96	C	0.897728	0.142664	0.33207
97	C	0.875035	0.113784	0.015061
98	C	0.939994	0.137214	0.32325
99	C	0.958282	0.103822	0.327964
100	C	0.935102	0.074133	0.008396
101	C	0.893419	0.080477	0.019964
102	H	0.569981	0.301041	0.308085
103	H	0.642805	0.300447	0.312208
104	H	0.5656	0.198201	0.027135
105	H	0.638398	0.197067	0.02962
106	H	0.77052	0.311485	0.310912
107	H	0.760516	0.201242	0.319444
108	H	0.876486	0.249585	0.321866
109	H	0.844967	0.116346	0.024322
110	H	0.825571	0.415156	0.022251
111	H	0.868172	0.464952	0.028525
112	H	0.964955	0.407265	0.299222
113	H	0.923333	0.356794	0.296304
114	H	0.875804	0.060915	0.033364
115	H	0.988156	0.101229	0.317768
116	H	0.957863	0.157318	0.311411
117	H	0.812882	0.355593	0.999913
118	H	0.884856	0.309993	0.314889
119	H	0.701413	0.23597	0.034898
120	H	0.707185	0.270833	0.28363
121	H	0.900791	0.195872	0.982236
122	H	0.818345	0.165327	0.329883
123	C	0.060459	0.998971	0.344473
124	C	0.080856	0.466222	0.349732
125	C	0.12343	0.461173	0.342279
126	C	0.147007	0.491827	0.332753
127	C	0.129782	0.02645	0.333335
128	C	0.086407	0.028478	0.336567
129	H	0.064327	0.445094	0.360372
130	O	0.184839	0.487413	0.313286
131	C	0.015791	0.001611	0.344486
132	C	0.990037	0.471804	0.336627
133	C	0.946741	0.473699	0.333421
134	C	0.929535	0.008297	0.332889
135	C	0.952866	0.039327	0.342289
136	C	0.995268	0.034557	0.349688
137	O	0.892203	0.012022	0.313341
138	H	0.011541	0.056081	0.360296
139	H	0.180543	0.984789	0.280959
140	H	0.897322	0.51338	0.28101
141	H	0.073382	0.052719	0.667461
142	H	0.003132	0.44748	0.667501
143	C	0.516315	0.250592	0.333562
144	C	0.492923	0.220792	0.653112
145	C	0.4498	0.221357	0.655003
146	C	0.428421	0.251908	0.337204
147	C	0.451662	0.28172	0.350945
148	C	0.494748	0.281097	0.349035
149	C	0.385861	0.252977	0.341382
150	C	0.359617	0.239794	0.644346
151	C	0.317301	0.242667	0.648724
152	C	0.298228	0.276205	0.652349
153	C	0.255071	0.2799	0.654363
154	C	0.231412	0.248454	0.652439
155	C	0.249204	0.214227	0.650058
156	C	0.29252	0.212004	0.647717
157	C	0.222745	0.184436	0.650181
158	C	0.233888	0.149041	0.324405
159	C	0.20689	0.119664	0.659011
160	C	0.221251	0.087568	0.343072
161	C	0.165957	0.120089	0.643932
162	C	0.14078	0.089862	0.646143
163	C	0.154952	0.057409	0.329993
164	C	0.195801	0.057673	0.345847
165	C	0.237961	0.314311	0.659375
166	C	0.196025	0.32337	0.324813
167	C	0.178793	0.357457	0.665454
168	C	0.200989	0.387134	0.348331
169	C	0.136731	0.362585	0.65668
170	C	0.118319	0.396142	0.661445
171	C	0.141006	0.426498	0.341689
172	C	0.182432	0.420607	0.353213
173	H	0.507121	0.198209	0.641445
174	H	0.434199	0.198959	0.645586
175	H	0.510251	0.302969	0.360449
176	H	0.437392	0.304206	0.362957
177	H	0.306522	0.187867	0.644252
178	H	0.316309	0.298419	0.652799
179	H	0.200283	0.250164	0.65518
180	H	0.230855	0.384947	0.357531
181	H	0.250224	0.08589	0.355574
182	H	0.207374	0.036395	0.361946
183	H	0.112404	0.091645	0.632458
184	H	0.154092	0.142011	0.62956
185	H	0.19972	0.440682	0.366555
186	H	0.08872	0.398364	0.651158
187	H	0.119156	0.342051	0.644836
188	H	0.263565	0.144605	0.333153
189	H	0.192091	0.189491	0.6482
190	H	0.374236	0.265492	0.368279
191	H	0.370519	0.227524	0.616999
192	H	0.176087	0.303781	0.315725
193	H	0.25823	0.334712	0.663219
194	C	0.560178	0.249591	0.333552
195	C	0.5839	0.278886	0.653086
196	C	0.626976	0.278394	0.65498
197	C	0.647981	0.248411	0.337174
198	C	0.624411	0.219096	0.350922
199	C	0.581371	0.219643	0.349008
200	C	0.690441	0.247501	0.341362
201	C	0.717419	0.259565	0.644316
202	C	0.759632	0.256846	0.648691
203	C	0.77861	0.223438	0.652305
204	C	0.821718	0.219818	0.654346
205	C	0.84543	0.251188	0.652395
206	C	0.827695	0.285331	0.650045
207	C	0.784434	0.287473	0.647707
208	C	0.854153	0.315126	0.650201
209	C	0.842839	0.350796	0.324447
210	C	0.869815	0.380212	0.659085
211	C	0.855026	0.412942	0.343142
212	C	0.91113	0.379227	0.644059
213	C	0.936246	0.409535	0.646253
214	C	0.921651	0.442621	0.330083
215	C	0.880423	0.442928	0.345957
216	C	0.838707	0.185589	0.659355
217	C	0.880673	0.176484	0.324768
218	C	0.897727	0.142664	0.665404
219	C	0.875148	0.113582	0.348311
220	C	0.939995	0.137214	0.656584
221	C	0.95828	0.103822	0.661299
222	C	0.935297	0.073976	0.341662
223	C	0.893593	0.08029	0.353206
224	H	0.569983	0.301042	0.641418
225	H	0.642807	0.300444	0.645543
226	H	0.565593	0.198204	0.360472
227	H	0.63839	0.197059	0.362957
228	H	0.770522	0.311486	0.644246
229	H	0.760518	0.201242	0.652779
230	H	0.876484	0.249585	0.6552
231	H	0.845065	0.116106	0.357538
232	H	0.825735	0.415088	0.355597
233	H	0.868435	0.464814	0.361979
234	H	0.964953	0.407263	0.632555
235	H	0.923331	0.356795	0.629637
236	H	0.875999	0.060711	0.366595
237	H	0.988154	0.101229	0.651102
238	H	0.957861	0.157317	0.644746
239	H	0.812941	0.355546	0.333161
240	H	0.884857	0.309993	0.648224
241	H	0.701408	0.23596	0.368255
242	H	0.707186	0.270834	0.616962
243	H	0.900821	0.195743	0.315654
244	H	0.818346	0.165327	0.663216
245	C	0.060459	0.998972	0.677805
246	C	0.080856	0.466223	0.683064
247	C	0.12343	0.461173	0.675611
248	C	0.147007	0.491827	0.666087
249	C	0.129782	0.02645	0.666667
250	C	0.086407	0.028478	0.669899
251	H	0.064327	0.445094	0.693704
252	O	0.184839	0.487414	0.64662
253	C	0.015791	0.00161	0.677818
254	C	0.990039	0.471804	0.669959
255	C	0.94674	0.4737	0.666754
256	C	0.929533	0.008297	0.666221
257	C	0.952865	0.039327	0.675624
258	C	0.99527	0.034557	0.68302
259	O	0.892205	0.012022	0.646673
260	H	0.011541	0.056081	0.693628
261	H	0.180543	0.984787	0.614291
262	H	0.897323	0.51338	0.614344
263	H	0.072998	0.053001	0.000708
264	H	0.002914	0.447679	0.000747
265	C	0.516317	0.250592	0.666894
266	C	0.492909	0.220793	0.986451
267	C	0.449786	0.221369	0.988342
268	C	0.428422	0.251907	0.670536
269	C	0.45166	0.28172	0.684281
270	C	0.49475	0.281098	0.68237
271	C	0.38586	0.252978	0.674717
272	C	0.359591	0.239921	0.977664
273	C	0.317275	0.24283	0.982059
274	C	0.298202	0.276374	0.985717
275	C	0.255039	0.280093	0.987755
276	C	0.231389	0.248641	0.985804
277	C	0.249177	0.214407	0.9834
278	C	0.29249	0.212171	0.981052
279	C	0.222719	0.184615	0.98349
280	C	0.233888	0.149041	0.657737
281	C	0.206746	0.119877	0.992253
282	C	0.221251	0.087568	0.676404
283	C	0.165803	0.120372	0.977198
284	C	0.140511	0.090218	0.979535
285	C	0.154952	0.057409	0.663326
286	C	0.195801	0.057673	0.679179
287	C	0.237916	0.314516	0.992783
288	C	0.196025	0.32337	0.658148
289	C	0.178736	0.357735	0.998779
290	C	0.200989	0.387134	0.681666
291	C	0.136656	0.362851	0.990056
292	C	0.118215	0.396409	0.994768
293	C	0.141005	0.426498	0.675024
294	C	0.182432	0.420608	0.686548
295	H	0.507104	0.198208	0.97478
296	H	0.434173	0.198977	0.978922
297	H	0.510253	0.302966	0.693781
298	H	0.437394	0.304206	0.696289
299	H	0.306484	0.18803	0.977581
300	H	0.316292	0.298581	0.986178
301	H	0.200259	0.250357	0.988525
302	H	0.230855	0.384948	0.690863
303	H	0.250224	0.08589	0.688909
304	H	0.207374	0.036395	0.695278
305	H	0.112131	0.092036	0.965863
306	H	0.154014	0.142292	0.962745
307	H	0.19972	0.440679	0.699887
308	H	0.088591	0.398585	0.98455
309	H	0.119072	0.342287	0.978308
310	H	0.263565	0.144605	0.666487
311	H	0.192066	0.189691	0.981569
312	H	0.374237	0.265492	0.701611
313	H	0.370478	0.227671	0.950294
314	H	0.176087	0.303781	0.649057
315	H	0.258192	0.334913	0.996622
316	C	0.560176	0.249591	0.666888
317	C	0.583892	0.278885	0.986418
318	C	0.626966	0.278403	0.988312
319	C	0.647982	0.248411	0.670509
320	C	0.624412	0.219096	0.684254
321	C	0.58137	0.219643	0.68234
322	C	0.690439	0.247501	0.674697
323	C	0.717396	0.259634	0.977651
324	C	0.759606	0.256932	0.982016
325	C	0.778588	0.223529	0.985611
326	C	0.821689	0.219926	0.987638
327	C	0.845407	0.25129	0.985707
328	C	0.827666	0.285424	0.983373
329	C	0.784405	0.287561	0.981036
330	C	0.854124	0.315217	0.983547
331	C	0.842841	0.350796	0.657781
332	C	0.869711	0.380314	0.992453
333	C	0.855028	0.412942	0.676478
334	C	0.911021	0.379362	0.977414
335	C	0.936077	0.40971	0.979545
336	C	0.92165	0.442618	0.663416
337	C	0.880421	0.442928	0.679289
338	C	0.838675	0.185707	0.992637
339	C	0.880671	0.176484	0.658101
340	C	0.897658	0.142816	0.998749
341	C	0.875149	0.113582	0.681643
342	C	0.939911	0.137334	0.989906
343	C	0.958144	0.103931	0.994651
344	C	0.935296	0.073976	0.674994
345	C	0.893595	0.08029	0.686538
346	H	0.569969	0.30104	0.97475
347	H	0.642787	0.300458	0.978875
348	H	0.565594	0.198204	0.693804
349	H	0.638389	0.197059	0.696292
350	H	0.770484	0.311571	0.977578
351	H	0.760498	0.201328	0.986078
352	H	0.876461	0.249691	0.988525
353	H	0.845067	0.116106	0.69087
354	H	0.825733	0.415088	0.688929
355	H	0.868434	0.464815	0.695315
356	H	0.964784	0.407458	0.96584
357	H	0.923265	0.356934	0.963029
358	H	0.875998	0.060711	0.699927
359	H	0.988006	0.101289	0.98443
360	H	0.957796	0.157408	0.978018
361	H	0.812939	0.355546	0.666494
362	H	0.884829	0.310097	0.981543
363	H	0.70141	0.23596	0.701587
364	H	0.707151	0.270915	0.950314
365	H	0.900822	0.195743	0.648987
366	H	0.818315	0.165443	0.996485
367	C	0.060186	0.499215	0.011136
368	C	0.080631	0.966481	0.016356
369	C	0.123212	0.961473	0.008894
370	C	0.146715	0.992182	0.999436
371	C	0.129441	0.526793	6.3e-05
372	C	0.086066	0.528767	0.003213
373	H	0.064128	0.945331	0.026967
374	O	0.184537	0.987845	0.979925
375	C	0.015523	0.501797	0.011192
376	C	0.989792	0.971993	0.00325
377	C	0.946493	0.973878	2.8e-05
378	C	0.929273	0.50847	0.999539
379	C	0.952607	0.539478	0.009039
380	C	0.994987	0.534716	0.016531
381	O	0.891947	0.512224	0.979985
382	H	0.011243	0.556222	0.02724
383	H	0.180227	0.485327	0.94759
384	H	0.897079	0.013656	0.947666
385	H	0.073382	0.55272	0.334129
386	H	0.003132	0.947479	0.334166
387	C	0.516315	0.750589	0.00023
388	C	0.492922	0.720793	0.31978
389	C	0.449799	0.721357	0.321669
390	C	0.428417	0.751924	0.00388
391	C	0.451671	0.78173	0.01762
392	C	0.494757	0.781097	0.015706
393	C	0.385858	0.753022	0.008067
394	C	0.359616	0.739795	0.311012
395	C	0.3173	0.742668	0.31539
396	C	0.298228	0.776206	0.319016
397	C	0.255071	0.779899	0.32103
398	C	0.231412	0.748454	0.319104
399	C	0.249204	0.714229	0.316724
400	C	0.29252	0.712005	0.314383
401	C	0.222745	0.684437	0.316848
402	C	0.23383	0.649194	0.990936
403	C	0.20689	0.619665	0.325678
404	C	0.220998	0.58779	0.009769
405	C	0.165957	0.620089	0.3106
406	C	0.14078	0.589863	0.312811
407	C	0.154606	0.55776	0.996772
408	C	0.195434	0.557985	0.012683
409	C	0.237961	0.81431	0.326041
410	C	0.195979	0.823623	0.991573
411	C	0.178793	0.857457	0.33212
412	C	0.200922	0.887472	0.014834
413	C	0.136731	0.862585	0.323348
414	C	0.118319	0.896141	0.328111
415	C	0.140867	0.926811	0.008258
416	C	0.182334	0.920947	0.019671
417	H	0.50712	0.69821	0.308111
418	H	0.434198	0.69896	0.312254
419	H	0.510266	0.802966	0.027118
420	H	0.43741	0.804219	0.029629
421	H	0.306522	0.687869	0.310918
422	H	0.316309	0.798421	0.319466
423	H	0.200283	0.750164	0.321846
424	H	0.23081	0.885321	0.023964
425	H	0.24996	0.58607	0.02229
426	H	0.206932	0.536714	0.028865
427	H	0.112404	0.591645	0.299124
428	H	0.154093	0.64201	0.296226
429	H	0.19963	0.941044	0.032942
430	H	0.088721	0.898363	0.317826
431	H	0.119156	0.84205	0.311502
432	H	0.263508	0.644708	0.999649
433	H	0.19209	0.689492	0.314866
434	H	0.37425	0.765514	0.034987
435	H	0.370518	0.727523	0.283664
436	H	0.176024	0.80402	0.98258
437	H	0.25823	0.834712	0.329885
438	C	0.560174	0.749588	0.000216
439	C	0.583899	0.778886	0.319754
440	C	0.626979	0.778396	0.321646
441	C	0.647977	0.748423	0.003838
442	C	0.624416	0.7191	0.017584
443	C	0.581374	0.719643	0.015671
444	C	0.690434	0.747524	0.008021
445	C	0.717422	0.759565	0.310981
446	C	0.759631	0.756846	0.315356
447	C	0.77861	0.723439	0.318971
448	C	0.821718	0.719817	0.321013
449	C	0.845429	0.751189	0.319061
450	C	0.827694	0.785331	0.316712
451	C	0.784437	0.787472	0.314373
452	C	0.854152	0.815125	0.316867
453	C	0.842781	0.850872	0.991176
454	C	0.869814	0.880212	0.325751
455	C	0.854867	0.913036	0.009796
456	C	0.91113	0.879226	0.310726
457	C	0.936249	0.909537	0.312919
458	C	0.921429	0.942786	0.996668
459	C	0.880197	0.943064	0.012536
460	C	0.838706	0.685588	0.326021
461	C	0.880637	0.676627	0.99139
462	C	0.897729	0.642665	0.33207
463	C	0.875036	0.613784	0.015061
464	C	0.939995	0.637215	0.32325
465	C	0.95828	0.603823	0.327964
466	C	0.9351	0.574132	0.008396
467	C	0.89342	0.580478	0.019964
468	H	0.569982	0.801041	0.308085
469	H	0.642806	0.800446	0.312208
470	H	0.565598	0.698201	0.027135
471	H	0.638399	0.697068	0.02962
472	H	0.770521	0.811485	0.310912
473	H	0.760517	0.701241	0.319444
474	H	0.876487	0.749585	0.321866
475	H	0.844965	0.616346	0.024322
476	H	0.825569	0.915156	0.022251
477	H	0.868173	0.964952	0.028525
478	H	0.964952	0.907265	0.299222
479	H	0.923331	0.856794	0.296304
480	H	0.875805	0.560917	0.033364
481	H	0.988154	0.60123	0.317768
482	H	0.957861	0.657318	0.311411
483	H	0.812883	0.855593	0.999913
484	H	0.884857	0.809993	0.314889
485	H	0.701414	0.735969	0.034898
486	H	0.707186	0.770833	0.28363
487	H	0.900792	0.695873	0.982236
488	H	0.818346	0.665327	0.329883
489	C	0.060459	0.498972	0.344473
490	C	0.080856	0.966222	0.349732
491	C	0.12343	0.961172	0.342279
492	C	0.147007	0.991826	0.332753
493	C	0.129782	0.526451	0.333335
494	C	0.086407	0.52848	0.336567
495	H	0.064327	0.945094	0.360372
496	O	0.184839	0.987413	0.313286
497	C	0.015791	0.501612	0.344486
498	C	0.990038	0.971806	0.336627
499	C	0.946739	0.973699	0.333421
500	C	0.929533	0.508298	0.332889
501	C	0.952864	0.539328	0.342289
502	C	0.995269	0.534557	0.349688
503	O	0.892204	0.512022	0.313341
504	H	0.011541	0.556082	0.360296
505	H	0.180543	0.484786	0.280959
506	H	0.897324	0.013381	0.28101
507	H	0.073382	0.55272	0.667461
508	H	0.003132	0.94748	0.667501
509	C	0.516316	0.750592	0.333562
510	C	0.49292	0.720793	0.653112
511	C	0.449798	0.721357	0.655003
512	C	0.428422	0.751908	0.337204
513	C	0.45166	0.781722	0.350945
514	C	0.494749	0.781097	0.349035
515	C	0.385859	0.752977	0.341382
516	C	0.359618	0.739795	0.644346
517	C	0.317299	0.742668	0.648724
518	C	0.298228	0.776204	0.652349
519	C	0.255071	0.7799	0.654363
520	C	0.231412	0.748455	0.652439
521	C	0.249204	0.714227	0.650058
522	C	0.29252	0.712005	0.647717
523	C	0.222745	0.684437	0.650181
524	C	0.233888	0.649042	0.324405
525	C	0.20689	0.619665	0.659011
526	C	0.221251	0.587568	0.343072
527	C	0.165957	0.62009	0.643932
528	C	0.14078	0.589861	0.646143
529	C	0.154952	0.557411	0.329993
530	C	0.195801	0.557673	0.345847
531	C	0.237961	0.81431	0.659375
532	C	0.196025	0.823372	0.324813
533	C	0.178793	0.857457	0.665454
534	C	0.200989	0.887133	0.348331
535	C	0.136731	0.862585	0.65668
536	C	0.118319	0.896141	0.661445
537	C	0.141006	0.926498	0.341689
538	C	0.182432	0.920607	0.353213
539	H	0.507122	0.69821	0.641445
540	H	0.4342	0.698958	0.645586
541	H	0.510252	0.802969	0.360449
542	H	0.437393	0.804206	0.362957
543	H	0.306523	0.687866	0.644252
544	H	0.316307	0.798421	0.652799
545	H	0.200283	0.750165	0.65518
546	H	0.230855	0.884947	0.357531
547	H	0.250224	0.585892	0.355574
548	H	0.207374	0.536395	0.361946
549	H	0.112404	0.591646	0.632458
550	H	0.154092	0.642011	0.62956
551	H	0.19972	0.940681	0.366555
552	H	0.088721	0.898364	0.651158
553	H	0.119156	0.842051	0.644836
554	H	0.263565	0.644604	0.333153
555	H	0.192091	0.689492	0.6482
556	H	0.374237	0.765492	0.368279
557	H	0.370517	0.727523	0.616999
558	H	0.176087	0.80378	0.315725
559	H	0.25823	0.834712	0.663219
560	C	0.560175	0.749591	0.333552
561	C	0.583901	0.778886	0.653086
562	C	0.626977	0.778396	0.65498
563	C	0.647982	0.748412	0.337174
564	C	0.624412	0.719096	0.350922
565	C	0.581369	0.719643	0.349008
566	C	0.690439	0.747501	0.341362
567	C	0.71742	0.759565	0.644316
568	C	0.759633	0.756846	0.648691
569	C	0.778611	0.723439	0.652305
570	C	0.821716	0.719817	0.654346
571	C	0.845428	0.751189	0.652395
572	C	0.827696	0.785331	0.650045
573	C	0.784435	0.787473	0.647707
574	C	0.854154	0.815126	0.650201
575	C	0.84284	0.850796	0.324447
576	C	0.869812	0.880212	0.659085
577	C	0.855027	0.912942	0.343142
578	C	0.911128	0.879226	0.644059
579	C	0.936247	0.909538	0.646253
580	C	0.921652	0.94262	0.330083
581	C	0.880421	0.942928	0.345957
582	C	0.838704	0.685589	0.659355
583	C	0.880671	0.676484	0.324768
584	C	0.897728	0.642666	0.665404
585	C	0.875149	0.613582	0.348311
586	C	0.939996	0.637215	0.656584
587	C	0.958281	0.603823	0.661299
588	C	0.935295	0.573975	0.341662
589	C	0.893594	0.580291	0.353206
590	H	0.569981	0.801042	0.641418
591	H	0.642805	0.800447	0.645543
592	H	0.565594	0.698204	0.360472
593	H	0.638388	0.697058	0.362957
594	H	0.77052	0.811485	0.644246
595	H	0.760516	0.701242	0.652779
596	H	0.876485	0.749585	0.6552
597	H	0.845066	0.616106	0.357538
598	H	0.825732	0.915088	0.355597
599	H	0.868433	0.964817	0.361979
600	H	0.964954	0.907265	0.632555
601	H	0.923332	0.856795	0.629637
602	H	0.875997	0.560711	0.366595
603	H	0.988155	0.601231	0.651102
604	H	0.957862	0.657318	0.644746
605	H	0.812942	0.855545	0.333161
606	H	0.884855	0.809993	0.648224
607	H	0.701409	0.735959	0.368255
608	H	0.707184	0.770834	0.616962
609	H	0.900822	0.695742	0.315654
610	H	0.818344	0.665327	0.663216
611	C	0.060459	0.498972	0.677805
612	C	0.080856	0.966223	0.683064
613	C	0.12343	0.961173	0.675611
614	C	0.147007	0.991827	0.666087
615	C	0.129782	0.526449	0.666667
616	C	0.086407	0.528477	0.669899
617	H	0.064327	0.945094	0.693704
618	O	0.184839	0.987414	0.64662
619	C	0.015791	0.501609	0.677818
620	C	0.99004	0.971804	0.669959
621	C	0.946741	0.973699	0.666754
622	C	0.929534	0.508298	0.666221
623	C	0.952866	0.539326	0.675624
624	C	0.995268	0.534557	0.68302
625	O	0.892206	0.512023	0.646673
626	H	0.011541	0.55608	0.693628
627	H	0.180543	0.484787	0.614291
628	H	0.897322	0.013381	0.614344
629	H	0.072998	0.553001	0.000708
630	H	0.002914	0.947681	0.000747
631	C	0.516315	0.750592	0.666894
632	C	0.49291	0.720793	0.986451
633	C	0.449784	0.721368	0.988342
634	C	0.42842	0.751908	0.670536
635	C	0.451661	0.78172	0.684281
636	C	0.494751	0.781098	0.68237
637	C	0.385861	0.752977	0.674717
638	C	0.359592	0.739922	0.977664
639	C	0.317273	0.74283	0.982059
640	C	0.298203	0.776374	0.985717
641	C	0.255039	0.780094	0.987755
642	C	0.231389	0.748641	0.985804
643	C	0.249177	0.714407	0.9834
644	C	0.29249	0.712172	0.981052
645	C	0.222719	0.684617	0.98349
646	C	0.233888	0.649042	0.657737
647	C	0.206746	0.619878	0.992253
648	C	0.221251	0.587568	0.676404
649	C	0.165803	0.620372	0.977198
650	C	0.140511	0.590217	0.979535
651	C	0.154952	0.557408	0.663326
652	C	0.195801	0.557673	0.679179
653	C	0.237916	0.814516	0.992783
654	C	0.196025	0.823372	0.658148
655	C	0.178737	0.857735	0.998779
656	C	0.200989	0.887134	0.681666
657	C	0.136656	0.862851	0.990056
658	C	0.118215	0.896409	0.994768
659	C	0.141006	0.926498	0.675024
660	C	0.182432	0.920608	0.686548
661	H	0.507105	0.698208	0.97478
662	H	0.434174	0.698977	0.978922
663	H	0.510254	0.802969	0.693781
664	H	0.437395	0.804206	0.696289
665	H	0.306485	0.688031	0.977581
666	H	0.31629	0.798584	0.986178
667	H	0.200259	0.750359	0.988525
668	H	0.230855	0.884947	0.690863
669	H	0.250224	0.585889	0.688909
670	H	0.207374	0.536395	0.695278
671	H	0.112131	0.592036	0.965863
672	H	0.154014	0.642292	0.962745
673	H	0.19972	0.940682	0.699887
674	H	0.088591	0.898585	0.98455
675	H	0.119072	0.842289	0.978308
676	H	0.263565	0.644605	0.666487
677	H	0.192066	0.689692	0.981569
678	H	0.374235	0.765493	0.701611
679	H	0.370479	0.727671	0.950294
680	H	0.176087	0.803781	0.649057
681	H	0.258192	0.834912	0.996622
682	C	0.560177	0.749591	0.666888
683	C	0.583893	0.778886	0.986418
684	C	0.626967	0.778402	0.988312
685	C	0.647983	0.74841	0.670509
686	C	0.624413	0.719096	0.684254
687	C	0.58137	0.719644	0.68234
688	C	0.69044	0.747501	0.674697
689	C	0.717397	0.759634	0.977651
690	C	0.759607	0.756934	0.982016
691	C	0.778585	0.723529	0.985611
692	C	0.82169	0.719925	0.987638
693	C	0.845405	0.75129	0.985707
694	C	0.827664	0.785424	0.983373
695	C	0.784406	0.787563	0.981036
696	C	0.854122	0.815216	0.983547
697	C	0.842842	0.850796	0.657781
698	C	0.869712	0.880314	0.992453
699	C	0.855029	0.912942	0.676478
700	C	0.911022	0.879362	0.977414
701	C	0.936078	0.909709	0.979545
702	C	0.921651	0.942621	0.663416
703	C	0.880422	0.942928	0.679289
704	C	0.838673	0.685707	0.992637
705	C	0.880672	0.676484	0.658101
706	C	0.897659	0.642817	0.998749
707	C	0.875147	0.613582	0.681643
708	C	0.939912	0.637334	0.989906
709	C	0.958142	0.603932	0.994651
710	C	0.935297	0.573976	0.674994
711	C	0.893592	0.580291	0.686538
712	H	0.56997	0.801039	0.97475
713	H	0.642788	0.800458	0.978875
714	H	0.565592	0.698205	0.693804
715	H	0.63839	0.697058	0.696292
716	H	0.770485	0.81157	0.977578
717	H	0.760499	0.701329	0.986078
718	H	0.876462	0.749691	0.988525
719	H	0.845065	0.616106	0.69087
720	H	0.825734	0.915088	0.688929
721	H	0.868435	0.964815	0.695315
722	H	0.964782	0.907458	0.96584
723	H	0.923266	0.856934	0.963029
724	H	0.875999	0.560712	0.699927
725	H	0.988007	0.601289	0.98443
726	H	0.957797	0.657407	0.978018
727	H	0.81294	0.855546	0.666494
728	H	0.884826	0.810096	0.981543
729	H	0.701408	0.73596	0.701587
730	H	0.707152	0.770914	0.950314
731	H	0.90082	0.695742	0.648987
732	H	0.818313	0.665443	0.996485
