data_C252H108N72O72_2018-02-15_10:36:47
#******************************************
#
# CIF file created by Zeo++
# Zeo++ is an open source package to
# analyze microporous materials
#
#*******************************************

_cell_length_a		34.05   
_cell_length_b		34.0523   
_cell_length_c		29.5596   
_cell_angle_alpha		90   
_cell_angle_beta		90   
_cell_angle_gamma		120.007   

_symmetry_space_group_name_H-M		'P1'
_symmetry_Int_Tables_number		1
_symmetry_cell_setting		Monoclinic

loop_
_symmetry_equiv_pos_as_xyz
'+x,+y,+z'

loop_
_atom_site_label
_atom_site_type_symbol
_atom_site_fract_x
_atom_site_fract_y
_atom_site_fract_z
1	C	0.318499	0.127131	0.025365
2	C	0.270728	0.10458	0.025076
3	C	0.17403	0.092992	0.049972
4	C	0.125941	0.068857	0.048822
5	H	0.108288	0.061655	0.078597
6	H	0.333667	0.109602	0.036794
7	H	0.252966	0.071628	0.035829
8	N	0.197586	0.107514	0.091658
9	O	0.188521	0.074545	0.11721
10	O	0.188366	0.134275	0.112065
11	C	0.920543	0.084805	0.049973
12	C	0.944673	0.060854	0.048824
13	H	0.951868	0.0504	0.078599
14	N	0.906016	0.093832	0.091658
15	O	0.938985	0.117738	0.117215
16	O	0.879248	0.057845	0.11206
17	H	0.602526	0.110596	0.041505
18	H	0.681137	0.131248	0.040044
19	C	0.247502	0.126656	0.009615
20	C	0.198989	0.10329	0.008858
21	C	0.102043	0.054273	0.007644
22	C	0.886887	0.124612	0.009614
23	C	0.910254	0.099471	0.008859
24	C	0.959264	0.051548	0.007647
25	C	0.62489	0.138406	0.023269
26	C	0.393665	0.195129	0.01037
27	N	0.415132	0.170294	0.012896
28	C	0.46104	0.190374	0.012246
29	N	0.485428	0.235848	0.007715
30	C	0.818421	0.20229	0.01033
31	N	0.843255	0.248598	0.01287
32	C	0.82317	0.27441	0.012196
33	N	0.777693	0.253313	0.007669
34	C	0.811257	0.619888	0.010314
35	N	0.764945	0.598411	0.012802
36	C	0.739116	0.552511	0.012028
37	N	0.760211	0.528129	0.007538
38	C	0.345067	0.172777	0.010759
39	C	0.840775	0.17605	0.010729
40	C	0.886416	0.195133	0.025356
41	C	0.908964	0.169917	0.025078
42	H	0.903945	0.227832	0.036786
43	H	0.941914	0.185111	0.035842
44	C	0.8375	0.668484	0.010747
45	C	0.818405	0.695026	0.025371
46	C	0.843617	0.742795	0.025097
47	C	0.928718	0.839512	0.049994
48	C	0.952662	0.887599	0.048841
49	H	0.963113	0.905254	0.078616
50	H	0.785702	0.679844	0.03679
51	H	0.828414	0.760541	0.035854
52	N	0.919687	0.81596	0.091681
53	O	0.895774	0.825011	0.117232
54	O	0.955679	0.825198	0.112088
55	C	0.671061	0.150286	0.021969
56	C	0.486213	0.16778	0.012902
57	C	0.512438	0.172318	0.051564
58	C	0.55151	0.167726	0.04906
59	H	0.505709	0.18335	0.081253
60	N	0.579578	0.176734	0.087606
61	O	0.595228	0.216688	0.101605
62	O	0.55847	0.149833	0.119377
63	C	0.87513	0.490266	0.023259
64	C	0.863242	0.524547	0.021946
65	H	0.902934	0.495722	0.041508
66	H	0.882274	0.553664	0.040023
67	C	0.84574	0.322169	0.012916
68	C	0.841234	0.343912	0.051551
69	C	0.845831	0.387573	0.049053
70	H	0.830198	0.326155	0.081243
71	N	0.836829	0.406632	0.087599
72	O	0.796874	0.382324	0.1016
73	O	0.863732	0.412431	0.119369
74	C	0.523324	0.388655	0.023274
75	C	0.489037	0.342484	0.021994
76	H	0.517868	0.411024	0.04148
77	H	0.459909	0.33241	0.040052
78	C	0.691329	0.527335	0.012806
79	C	0.66971	0.501179	0.051509
80	C	0.626048	0.462088	0.049029
81	H	0.687508	0.507944	0.081178
82	N	0.607014	0.43405	0.087595
83	O	0.631342	0.418433	0.101604
84	O	0.601216	0.455164	0.119352
85	C	0.888927	0.766042	0.009639
86	C	0.914061	0.814553	0.008881
87	C	0.961971	0.91149	0.007662
88	C	0.983894	0.028268	0.007143
89	N	0.030048	0.051689	0.007218
90	C	0.054125	0.029637	0.00714
91	C	0.247502	0.126656	0.342948
92	C	0.198989	0.10329	0.342191
93	C	0.102043	0.054273	0.340976
94	C	0.12701	0.064469	0.300401
95	C	0.175124	0.088886	0.300458
96	H	0.110129	0.053956	0.270221
97	N	0.199764	0.098256	0.259421
98	O	0.191319	0.062434	0.239135
99	O	0.191078	0.122063	0.23333
100	C	0.886887	0.124612	0.342945
101	C	0.841454	0.105199	0.328198
102	C	0.818763	0.130353	0.329101
103	H	0.82446	0.072436	0.31683
104	H	0.78603	0.115012	0.317746
105	C	0.910254	0.099471	0.342191
106	C	0.959264	0.051548	0.340979
107	C	0.949077	0.066324	0.300405
108	C	0.924662	0.090017	0.30046
109	H	0.959592	0.059961	0.270225
110	N	0.915299	0.105289	0.259423
111	O	0.951128	0.132675	0.239141
112	O	0.891491	0.072795	0.233328
113	O	0.522356	0.108047	0.241209
114	C	0.983894	0.028268	0.340479
115	N	0.030048	0.051689	0.340553
116	C	0.054125	0.029637	0.340475
117	C	0.318499	0.127131	0.3587
118	C	0.270728	0.10458	0.358409
119	C	0.247502	0.126656	0.676282
120	C	0.198989	0.10329	0.675524
121	C	0.17403	0.092992	0.383304
122	C	0.125941	0.068857	0.382154
123	C	0.102043	0.054273	0.67431
124	C	0.12701	0.064469	0.633734
125	C	0.175124	0.088886	0.633792
126	H	0.108288	0.061655	0.411931
127	H	0.110129	0.053956	0.603554
128	H	0.333667	0.109602	0.370127
129	H	0.252966	0.071628	0.369163
130	N	0.199764	0.098256	0.592753
131	N	0.197586	0.107514	0.42499
132	O	0.188521	0.074545	0.450545
133	O	0.191319	0.062434	0.572468
134	O	0.191078	0.122063	0.566663
135	O	0.188366	0.134275	0.445399
136	C	0.886887	0.124612	0.676279
137	C	0.841454	0.105199	0.661529
138	C	0.818763	0.130353	0.662432
139	H	0.82446	0.072436	0.650162
140	H	0.78603	0.115012	0.651079
141	C	0.910254	0.099471	0.675524
142	C	0.920543	0.084805	0.383304
143	C	0.944673	0.060854	0.382157
144	C	0.959264	0.051548	0.674313
145	C	0.949077	0.066324	0.633738
146	C	0.924662	0.090017	0.633792
147	H	0.951868	0.0504	0.411931
148	H	0.959592	0.059961	0.603558
149	N	0.915299	0.105289	0.592756
150	N	0.906016	0.093832	0.42499
151	O	0.938985	0.117738	0.450548
152	O	0.951128	0.132675	0.572475
153	O	0.891491	0.072795	0.566659
154	O	0.879248	0.057845	0.445392
155	H	0.602526	0.110596	0.374837
156	H	0.681137	0.131248	0.373375
157	O	0.522356	0.108047	0.574542
158	C	0.983894	0.028268	0.673813
159	N	0.030048	0.051689	0.673884
160	C	0.054125	0.029637	0.673809
161	C	0.318499	0.127131	0.69203
162	C	0.270728	0.10458	0.691743
163	C	0.17403	0.092992	0.716638
164	C	0.125941	0.068857	0.715488
165	C	0.12701	0.064469	0.967068
166	C	0.175124	0.088886	0.967122
167	H	0.108288	0.061655	0.745262
168	H	0.110129	0.053956	0.936885
169	H	0.333667	0.109602	0.703461
170	H	0.252966	0.071628	0.702494
171	N	0.199764	0.098256	0.926086
172	N	0.197586	0.107514	0.758323
173	O	0.188521	0.074545	0.783875
174	O	0.191319	0.062434	0.905802
175	O	0.191078	0.122063	0.899997
176	O	0.188366	0.134275	0.77873
177	C	0.841454	0.105199	0.994863
178	C	0.818763	0.130353	0.995766
179	H	0.82446	0.072436	0.983496
180	H	0.78603	0.115012	0.984413
181	C	0.920543	0.084805	0.716638
182	C	0.944673	0.060854	0.715488
183	C	0.949077	0.066324	0.967071
184	C	0.924662	0.090017	0.967126
185	H	0.951868	0.0504	0.745265
186	H	0.959592	0.059961	0.936892
187	N	0.915299	0.105289	0.92609
188	N	0.906016	0.093832	0.758323
189	O	0.938985	0.117738	0.783882
190	O	0.951128	0.132675	0.905809
191	O	0.891491	0.072795	0.899993
192	O	0.879248	0.057845	0.778726
193	H	0.602526	0.110596	0.70817
194	H	0.681137	0.131248	0.706709
195	O	0.522356	0.108047	0.907876
196	N	0.551877	0.14486	0.258323
197	C	0.62489	0.138406	0.356602
198	N	0.551877	0.14486	0.591656
199	C	0.62489	0.138406	0.689936
200	N	0.551877	0.14486	0.924987
201	C	0.985255	0.959408	0.007153
202	N	0.961835	0.982136	0.007231
203	N	0.031388	0.983485	0.007228
204	C	0.466353	0.262371	0.004511
205	N	0.420147	0.241314	0.006311
206	C	0.751171	0.207712	0.00446
207	N	0.772235	0.182575	0.00626
208	C	0.805818	0.547214	0.004396
209	N	0.830966	0.593416	0.00624
210	C	0.27353	0.172091	0.328212
211	C	0.321382	0.194785	0.329127
212	H	0.257763	0.189084	0.316846
213	H	0.338782	0.227521	0.317782
214	C	0.888927	0.766042	0.342972
215	C	0.908351	0.740034	0.328229
216	C	0.883203	0.692188	0.329128
217	H	0.941117	0.755817	0.316864
218	H	0.89855	0.674805	0.31777
219	C	0.914061	0.814553	0.342214
220	C	0.961971	0.91149	0.340993
221	C	0.947202	0.886524	0.300421
222	C	0.923516	0.838413	0.30048
223	H	0.953569	0.903399	0.270239
224	N	0.908248	0.813769	0.259444
225	O	0.880856	0.822196	0.239157
226	O	0.940748	0.822468	0.233352
227	C	0.70364	0.190341	0.333234
228	C	0.687978	0.216514	0.31039
229	C	0.642133	0.204563	0.311386
230	C	0.609842	0.165582	0.001571
231	C	0.56493	0.158403	0.006656
232	C	0.537841	0.152356	0.301068
233	C	0.498817	0.156903	0.304733
234	H	0.482041	0.156485	0.275803
235	H	0.710197	0.245865	0.294075
236	H	0.632968	0.225927	0.296475
237	O	0.560193	0.176372	0.230953
238	C	0.823194	0.51706	0.33319
239	C	0.797032	0.475219	0.310343
240	C	0.808989	0.441334	0.311351
241	C	0.847967	0.448039	0.001554
242	C	0.855151	0.410311	0.006649
243	C	0.861193	0.389262	0.301072
244	C	0.856629	0.345685	0.304754
245	H	0.857055	0.329338	0.27582
246	H	0.767684	0.468074	0.294012
247	H	0.787635	0.410803	0.296435
248	N	0.868698	0.410786	0.258321
249	O	0.837187	0.387584	0.23095
250	O	0.905512	0.418074	0.241216
251	C	0.496527	0.309903	0.333296
252	C	0.538368	0.325557	0.310462
253	C	0.572261	0.371404	0.311437
254	C	0.565558	0.403699	0.001588
255	C	0.603283	0.448622	0.006632
256	C	0.624301	0.475677	0.301013
257	C	0.667876	0.514716	0.304627
258	H	0.684221	0.531472	0.275681
259	H	0.54551	0.303341	0.294164
260	H	0.602798	0.380574	0.296531
261	N	0.602738	0.46159	0.258285
262	O	0.625924	0.453261	0.230917
263	O	0.595417	0.49108	0.241148
264	C	0.985255	0.959408	0.340489
265	N	0.961835	0.982136	0.340563
266	N	0.031388	0.983485	0.34056
267	C	0.466353	0.262371	0.337846
268	N	0.420147	0.241314	0.339647
269	C	0.393665	0.195129	0.343703
270	N	0.415132	0.170294	0.34623
271	C	0.46104	0.190374	0.34558
272	N	0.485428	0.235848	0.341047
273	C	0.751171	0.207712	0.337795
274	N	0.772235	0.182575	0.339596
275	C	0.818421	0.20229	0.343662
276	N	0.843255	0.248598	0.346203
277	C	0.82317	0.27441	0.34553
278	N	0.777693	0.253313	0.341
279	C	0.805818	0.547214	0.337729
280	N	0.830966	0.593416	0.339576
281	C	0.811257	0.619888	0.343649
282	N	0.764945	0.598411	0.346135
283	C	0.739116	0.552511	0.34536
284	N	0.760211	0.528129	0.340871
285	C	0.345067	0.172777	0.344092
286	C	0.27353	0.172091	0.661546
287	C	0.321382	0.194785	0.662459
288	H	0.257763	0.189084	0.650179
289	H	0.338782	0.227521	0.651116
290	C	0.840775	0.17605	0.344061
291	C	0.886416	0.195133	0.358689
292	C	0.908964	0.169917	0.358412
293	H	0.903945	0.227832	0.370121
294	H	0.941914	0.185111	0.369173
295	C	0.8375	0.668484	0.344082
296	C	0.818405	0.695026	0.358703
297	C	0.843617	0.742795	0.358429
298	C	0.888927	0.766042	0.676306
299	C	0.908351	0.740034	0.661563
300	C	0.883203	0.692188	0.662463
301	H	0.941117	0.755817	0.650196
302	H	0.89855	0.674805	0.651103
303	C	0.914061	0.814553	0.675548
304	C	0.928718	0.839512	0.383328
305	C	0.952662	0.887599	0.382174
306	C	0.961971	0.91149	0.674327
307	C	0.947202	0.886524	0.633755
308	C	0.923516	0.838413	0.633812
309	H	0.963113	0.905254	0.411948
310	H	0.953569	0.903399	0.603571
311	H	0.785702	0.679844	0.370124
312	H	0.828414	0.760541	0.369187
313	N	0.908248	0.813769	0.592776
314	N	0.919687	0.81596	0.425013
315	O	0.895774	0.825011	0.450565
316	O	0.880856	0.822196	0.572492
317	O	0.940748	0.822468	0.566687
318	O	0.955679	0.825198	0.445419
319	C	0.70364	0.190341	0.666566
320	C	0.687978	0.216514	0.643724
321	C	0.642133	0.204563	0.644719
322	C	0.609842	0.165582	0.334905
323	C	0.671061	0.150286	0.355303
324	C	0.56493	0.158403	0.339992
325	C	0.537841	0.152356	0.634401
326	C	0.498817	0.156903	0.638068
327	C	0.486213	0.16778	0.346233
328	C	0.512438	0.172318	0.384898
329	C	0.55151	0.167726	0.382394
330	H	0.482041	0.156485	0.609136
331	H	0.505709	0.18335	0.414587
332	H	0.710197	0.245865	0.627408
333	H	0.632968	0.225927	0.629807
334	N	0.579578	0.176734	0.42094
335	O	0.560193	0.176372	0.564285
336	O	0.595228	0.216688	0.434939
337	O	0.55847	0.149833	0.45271
338	C	0.823194	0.51706	0.666522
339	C	0.797032	0.475219	0.643677
340	C	0.808989	0.441334	0.644685
341	C	0.847967	0.448039	0.334889
342	C	0.87513	0.490266	0.356592
343	C	0.863242	0.524547	0.355279
344	H	0.902934	0.495722	0.37484
345	H	0.882274	0.553664	0.373355
346	C	0.855151	0.410311	0.339981
347	C	0.861193	0.389262	0.634404
348	C	0.856629	0.345685	0.638088
349	C	0.84574	0.322169	0.34625
350	C	0.841234	0.343912	0.384884
351	C	0.845831	0.387573	0.382384
352	H	0.857055	0.329338	0.609153
353	H	0.830198	0.326155	0.414577
354	H	0.767684	0.468074	0.627344
355	H	0.787635	0.410803	0.629769
356	N	0.836829	0.406632	0.420933
357	N	0.868698	0.410786	0.591653
358	O	0.837187	0.387584	0.564281
359	O	0.796874	0.382324	0.434932
360	O	0.863732	0.412431	0.4527
361	O	0.905512	0.418074	0.574549
362	C	0.496527	0.309903	0.666631
363	C	0.538368	0.325557	0.643795
364	C	0.572261	0.371404	0.64477
365	C	0.565558	0.403699	0.334922
366	C	0.523324	0.388655	0.356606
367	C	0.489037	0.342484	0.355327
368	H	0.517868	0.411024	0.374813
369	H	0.459909	0.33241	0.373385
370	C	0.603283	0.448622	0.339968
371	C	0.624301	0.475677	0.634347
372	C	0.667876	0.514716	0.63796
373	C	0.691329	0.527335	0.346139
374	C	0.66971	0.501179	0.384843
375	C	0.626048	0.462088	0.382364
376	H	0.684221	0.531472	0.609015
377	H	0.687508	0.507944	0.414512
378	H	0.54551	0.303341	0.627496
379	H	0.602798	0.380574	0.629864
380	N	0.607014	0.43405	0.420927
381	N	0.602738	0.46159	0.591619
382	O	0.625924	0.453261	0.564251
383	O	0.631342	0.418433	0.434936
384	O	0.601216	0.455164	0.452686
385	O	0.595417	0.49108	0.574481
386	C	0.985255	0.959408	0.673823
387	N	0.961835	0.982136	0.673897
388	N	0.031388	0.983485	0.673894
389	C	0.466353	0.262371	0.671181
390	N	0.420147	0.241314	0.672977
391	C	0.393665	0.195129	0.677037
392	N	0.415132	0.170294	0.67956
393	C	0.46104	0.190374	0.678911
394	N	0.485428	0.235848	0.674381
395	C	0.751171	0.207712	0.671127
396	N	0.772235	0.182575	0.672926
397	C	0.818421	0.20229	0.676996
398	N	0.843255	0.248598	0.679537
399	C	0.82317	0.27441	0.67886
400	N	0.777693	0.253313	0.674334
401	C	0.805818	0.547214	0.671062
402	N	0.830966	0.593416	0.672906
403	C	0.811257	0.619888	0.676979
404	N	0.764945	0.598411	0.679469
405	C	0.739116	0.552511	0.678694
406	N	0.760211	0.528129	0.674205
407	C	0.345067	0.172777	0.677426
408	C	0.27353	0.172091	0.994876
409	C	0.321382	0.194785	0.995793
410	H	0.257763	0.189084	0.983513
411	H	0.338782	0.227521	0.984447
412	C	0.840775	0.17605	0.677395
413	C	0.886416	0.195133	0.69202
414	C	0.908964	0.169917	0.691743
415	H	0.903945	0.227832	0.703451
416	H	0.941914	0.185111	0.702507
417	C	0.8375	0.668484	0.677412
418	C	0.818405	0.695026	0.692037
419	C	0.843617	0.742795	0.691763
420	C	0.908351	0.740034	0.994893
421	C	0.883203	0.692188	0.995793
422	H	0.941117	0.755817	0.98353
423	H	0.89855	0.674805	0.984436
424	C	0.928718	0.839512	0.716658
425	C	0.952662	0.887599	0.715508
426	C	0.947202	0.886524	0.967085
427	C	0.923516	0.838413	0.967146
428	H	0.963113	0.905254	0.745282
429	H	0.953569	0.903399	0.936905
430	H	0.785702	0.679844	0.703454
431	H	0.828414	0.760541	0.702521
432	N	0.908248	0.813769	0.92611
433	N	0.919687	0.81596	0.758347
434	O	0.895774	0.825011	0.783899
435	O	0.880856	0.822196	0.905822
436	O	0.940748	0.822468	0.900017
437	O	0.955679	0.825198	0.778753
438	C	0.70364	0.190341	0.9999
439	C	0.687978	0.216514	0.977055
440	C	0.642133	0.204563	0.978053
441	C	0.609842	0.165582	0.668237
442	C	0.671061	0.150286	0.688634
443	C	0.56493	0.158403	0.673322
444	C	0.537841	0.152356	0.967735
445	C	0.498817	0.156903	0.971398
446	C	0.486213	0.16778	0.679567
447	C	0.512438	0.172318	0.718231
448	C	0.55151	0.167726	0.715725
449	H	0.482041	0.156485	0.94247
450	H	0.505709	0.18335	0.747917
451	H	0.710197	0.245865	0.960742
452	H	0.632968	0.225927	0.96314
453	N	0.579578	0.176734	0.754271
454	O	0.560193	0.176372	0.897618
455	O	0.595228	0.216688	0.768269
456	O	0.55847	0.149833	0.786044
457	C	0.823194	0.51706	0.999856
458	C	0.797032	0.475219	0.977007
459	C	0.808989	0.441334	0.978015
460	C	0.847967	0.448039	0.668221
461	C	0.87513	0.490266	0.689926
462	C	0.863242	0.524547	0.688613
463	H	0.902934	0.495722	0.708174
464	H	0.882274	0.553664	0.706689
465	C	0.855151	0.410311	0.673315
466	C	0.861193	0.389262	0.967738
467	C	0.856629	0.345685	0.971419
468	C	0.84574	0.322169	0.679581
469	C	0.841234	0.343912	0.718218
470	C	0.845831	0.387573	0.715718
471	H	0.857055	0.329338	0.942484
472	H	0.830198	0.326155	0.747907
473	H	0.767684	0.468074	0.960678
474	H	0.787635	0.410803	0.9631
475	N	0.836829	0.406632	0.754264
476	N	0.868698	0.410786	0.924987
477	O	0.837187	0.387584	0.897615
478	O	0.796874	0.382324	0.768266
479	O	0.863732	0.412431	0.786034
480	O	0.905512	0.418074	0.907882
481	C	0.496527	0.309903	0.999961
482	C	0.538368	0.325557	0.977129
483	C	0.572261	0.371404	0.978103
484	C	0.565558	0.403699	0.668254
485	C	0.523324	0.388655	0.689939
486	C	0.489037	0.342484	0.688661
487	H	0.517868	0.411024	0.708147
488	H	0.459909	0.33241	0.706719
489	C	0.603283	0.448622	0.673302
490	C	0.624301	0.475677	0.96768
491	C	0.667876	0.514716	0.971293
492	C	0.691329	0.527335	0.679472
493	C	0.66971	0.501179	0.718174
494	C	0.626048	0.462088	0.715694
495	H	0.684221	0.531472	0.942348
496	H	0.687508	0.507944	0.747843
497	H	0.54551	0.303341	0.96083
498	H	0.602798	0.380574	0.963198
499	N	0.607014	0.43405	0.75426
500	N	0.602738	0.46159	0.92495
501	O	0.625924	0.453261	0.897581
502	O	0.631342	0.418433	0.768269
503	O	0.601216	0.455164	0.786017
504	O	0.595417	0.49108	0.907815
