data_C144H72N54_2018-02-15_10:44:59
#******************************************
#
# CIF file created by Zeo++
# Zeo++ is an open source package to
# analyze microporous materials
#
#*******************************************

_cell_length_a		29.0387   
_cell_length_b		29.0388   
_cell_length_c		30.0618   
_cell_angle_alpha		90   
_cell_angle_beta		90   
_cell_angle_gamma		120   

_symmetry_space_group_name_H-M		'P1'
_symmetry_Int_Tables_number		1
_symmetry_cell_setting		Monoclinic

loop_
_symmetry_equiv_pos_as_xyz
'+x,+y,+z'

loop_
_atom_site_label
_atom_site_type_symbol
_atom_site_fract_x
_atom_site_fract_y
_atom_site_fract_z
1	C	0.345775	0.718139	0.980501
2	N	0.293802	0.679492	0.980441
3	C	0.279287	0.627123	0.980448
4	N	0.317933	0.613798	0.980358
5	C	0.370303	0.651654	0.980414
6	N	0.383629	0.703625	0.980411
7	C	0.409541	0.638341	0.980468
8	C	0.359082	0.770687	0.980641
9	C	0.226738	0.58788	0.980534
10	H	0.217139	0.551293	0.97116
11	H	0.332114	0.78031	0.971253
12	H	0.446136	0.665332	0.971114
13	C	0.647079	0.278835	0.013783
14	N	0.700034	0.314489	0.013968
15	C	0.718593	0.367743	0.013803
16	N	0.68294	0.385043	0.013974
17	C	0.629686	0.350349	0.013793
18	N	0.612386	0.297395	0.01396
19	C	0.593373	0.36757	0.015101
20	C	0.629862	0.225303	0.015092
21	C	0.772126	0.404055	0.015115
22	H	0.783731	0.442196	0.020338
23	H	0.6564	0.213701	0.020322
24	H	0.555231	0.341033	0.02032
25	C	0.578595	0.44018	0.343123
26	C	0.589144	0.480012	0.311451
27	N	0.559833	0.504534	0.311018
28	C	0.520245	0.493464	0.340655
29	C	0.508714	0.45469	0.040872
30	C	0.53851	0.42841	0.041775
31	H	0.531015	0.4005	0.065769
32	C	0.490394	0.519601	0.004798
33	C	0.472343	0.581784	0.301357
34	C	0.430489	0.571032	0.997785
35	C	0.418828	0.533029	0.031534
36	H	0.618134	0.4902	0.287973
37	N	0.500254	0.556073	0.305749
38	C	0.448777	0.507119	0.03576
39	C	0.438063	0.469081	0.069338
40	C	0.467871	0.443115	0.07192
41	H	0.408238	0.459657	0.09189
42	H	0.459082	0.415284	0.096264
43	H	0.38825	0.524178	0.053196
44	H	0.481438	0.607957	0.275667
45	N	0.399647	0.592457	0.994362
46	N	0.607828	0.416803	0.342475
47	C	0.557249	0.13791	0.34315
48	C	0.517404	0.108609	0.311493
49	N	0.492894	0.054776	0.311068
50	C	0.503983	0.026276	0.340712
51	C	0.542766	0.053536	0.04092
52	C	0.569033	0.109611	0.041809
53	H	0.596951	0.130039	0.065795
54	C	0.477855	0.970287	0.004868
55	C	0.415669	0.890035	0.30145
56	C	0.426442	0.858948	0.997878
57	C	0.464447	0.885307	0.031624
58	H	0.507222	0.1274	0.288
59	N	0.441373	0.943657	0.305828
60	C	0.490349	0.941168	0.035837
61	C	0.528399	0.96851	0.069403
62	C	0.554349	0.024283	0.071975
63	H	0.537826	0.948119	0.091964
64	H	0.582187	0.043338	0.096314
65	H	0.473306	0.863592	0.053292
66	H	0.389487	0.872945	0.275769
67	N	0.404997	0.806678	0.994479
68	N	0.580625	0.190517	0.342485
69	C	0.859517	0.418843	0.34314
70	C	0.888811	0.40827	0.311498
71	N	0.942644	0.437592	0.311063
72	C	0.971155	0.477181	0.340705
73	C	0.943902	0.488704	0.040919
74	C	0.887829	0.458909	0.041812
75	H	0.867407	0.466409	0.065799
76	C	0.027141	0.507024	0.00486
77	C	0.107385	0.525073	0.301436
78	C	0.138487	0.566896	0.997888
79	C	0.112134	0.578563	0.031626
80	H	0.870011	0.379319	0.28799
81	N	0.053758	0.497174	0.305808
82	C	0.056273	0.548625	0.035837
83	C	0.028941	0.559337	0.06941
84	C	0.973168	0.529542	0.071972
85	H	0.049339	0.589141	0.091979
86	H	0.954123	0.538306	0.096332
87	H	0.133855	0.609134	0.053293
88	H	0.124463	0.516006	0.275729
89	N	0.190748	0.597761	0.994452
90	N	0.806911	0.389607	0.342491
91	C	0.345775	0.718139	0.313834
92	N	0.293802	0.679492	0.313776
93	C	0.279287	0.627123	0.313782
94	N	0.317933	0.613798	0.313691
95	C	0.370303	0.651654	0.313749
96	N	0.383629	0.703625	0.313743
97	C	0.409541	0.638341	0.313802
98	C	0.359082	0.770687	0.313976
99	C	0.226738	0.58788	0.31387
100	H	0.217139	0.551293	0.304494
101	H	0.332114	0.78031	0.304586
102	H	0.446136	0.665332	0.304446
103	C	0.647079	0.278835	0.347115
104	N	0.700034	0.314489	0.347301
105	C	0.718593	0.367743	0.347135
106	N	0.68294	0.385043	0.347308
107	C	0.629686	0.350349	0.347125
108	N	0.612386	0.297395	0.347292
109	C	0.593373	0.36757	0.348432
110	C	0.629862	0.225303	0.348426
111	C	0.772126	0.404055	0.348449
112	H	0.783731	0.442196	0.353672
113	H	0.6564	0.213701	0.353655
114	H	0.555231	0.341033	0.353652
115	C	0.578595	0.44018	0.676454
116	C	0.589144	0.480012	0.644786
117	N	0.559833	0.504534	0.64435
118	C	0.520245	0.493464	0.673989
119	C	0.508714	0.45469	0.374206
120	C	0.53851	0.42841	0.375108
121	H	0.531015	0.4005	0.399101
122	C	0.490394	0.519601	0.33813
123	C	0.472343	0.581784	0.63469
124	C	0.430489	0.571032	0.331118
125	C	0.418828	0.533029	0.364869
126	H	0.618134	0.4902	0.621307
127	N	0.500254	0.556073	0.639081
128	C	0.448777	0.507119	0.369093
129	C	0.438063	0.469081	0.402671
130	C	0.467871	0.443115	0.405252
131	H	0.408238	0.459657	0.425224
132	H	0.459082	0.415284	0.429595
133	H	0.38825	0.524178	0.386531
134	H	0.481438	0.607957	0.608999
135	N	0.399647	0.592457	0.327698
136	N	0.607828	0.416803	0.675808
137	C	0.557249	0.13791	0.676484
138	C	0.517404	0.108609	0.644825
139	N	0.492894	0.054776	0.644403
140	C	0.503983	0.026276	0.674045
141	C	0.542766	0.053536	0.374253
142	C	0.569033	0.109611	0.375141
143	H	0.596951	0.130039	0.399128
144	C	0.477855	0.970287	0.3382
145	C	0.415669	0.890035	0.634783
146	C	0.426442	0.858948	0.331212
147	C	0.464447	0.885307	0.364958
148	H	0.507222	0.1274	0.621334
149	N	0.441373	0.943657	0.63916
150	C	0.490349	0.941168	0.36917
151	C	0.528399	0.96851	0.402737
152	C	0.554349	0.024283	0.405309
153	H	0.537826	0.948119	0.425298
154	H	0.582187	0.043338	0.429645
155	H	0.473306	0.863592	0.386624
156	H	0.389487	0.872945	0.609102
157	N	0.404997	0.806678	0.327814
158	N	0.580625	0.190517	0.675818
159	C	0.859517	0.418843	0.676474
160	C	0.888811	0.40827	0.644832
161	N	0.942644	0.437592	0.644396
162	C	0.971155	0.477181	0.674039
163	C	0.943902	0.488704	0.374253
164	C	0.887829	0.458909	0.375144
165	H	0.867407	0.466409	0.399131
166	C	0.027141	0.507024	0.338194
167	C	0.107385	0.525073	0.63477
168	C	0.138487	0.566896	0.331223
169	C	0.112134	0.578563	0.364958
170	H	0.870011	0.379319	0.621324
171	N	0.053758	0.497174	0.639141
172	C	0.056273	0.548625	0.36917
173	C	0.028941	0.559337	0.402744
174	C	0.973168	0.529542	0.405305
175	H	0.049339	0.589141	0.425311
176	H	0.954123	0.538306	0.429665
177	H	0.133855	0.609134	0.386627
178	H	0.124463	0.516006	0.609062
179	N	0.190748	0.597761	0.327787
180	N	0.806911	0.389607	0.675822
181	C	0.345775	0.718139	0.647167
182	N	0.293802	0.679492	0.647107
183	C	0.279287	0.627123	0.647114
184	N	0.317933	0.613798	0.647024
185	C	0.370303	0.651654	0.647081
186	N	0.383629	0.703625	0.647078
187	C	0.409541	0.638341	0.647134
188	C	0.359082	0.770687	0.64731
189	C	0.226738	0.58788	0.647204
190	H	0.217139	0.551293	0.637827
191	H	0.332114	0.78031	0.63792
192	H	0.446136	0.665332	0.63778
193	C	0.647079	0.278835	0.680449
194	N	0.700034	0.314489	0.680635
195	C	0.718593	0.367743	0.680469
196	N	0.68294	0.385043	0.680642
197	C	0.629686	0.350349	0.680459
198	N	0.612386	0.297395	0.680625
199	C	0.593373	0.36757	0.681766
200	C	0.629862	0.225303	0.681759
201	C	0.772126	0.404055	0.681779
202	H	0.783731	0.442196	0.687005
203	H	0.6564	0.213701	0.686989
204	H	0.555231	0.341033	0.686985
205	C	0.578595	0.44018	0.009789
206	C	0.589144	0.480012	0.978116
207	N	0.559833	0.504534	0.977683
208	C	0.520245	0.493464	0.007324
209	C	0.508714	0.45469	0.70754
210	C	0.53851	0.42841	0.708441
211	H	0.531015	0.4005	0.732435
212	C	0.490394	0.519601	0.671464
213	C	0.472343	0.581784	0.968023
214	C	0.430489	0.571032	0.664452
215	C	0.418828	0.533029	0.698202
216	H	0.618134	0.4902	0.954638
217	N	0.500254	0.556073	0.972414
218	C	0.448777	0.507119	0.702427
219	C	0.438063	0.469081	0.736004
220	C	0.467871	0.443115	0.738586
221	H	0.408238	0.459657	0.758555
222	H	0.459082	0.415284	0.762929
223	H	0.38825	0.524178	0.719861
224	H	0.481438	0.607957	0.942333
225	N	0.399647	0.592457	0.661032
226	N	0.607828	0.416803	0.009142
227	C	0.557249	0.13791	0.009817
228	C	0.517404	0.108609	0.978159
229	N	0.492894	0.054776	0.977733
230	C	0.503983	0.026276	0.007379
231	C	0.542766	0.053536	0.707586
232	C	0.569033	0.109611	0.708474
233	H	0.596951	0.130039	0.732462
234	C	0.477855	0.970287	0.671534
235	C	0.415669	0.890035	0.968116
236	C	0.426442	0.858948	0.664545
237	C	0.464447	0.885307	0.698289
238	H	0.507222	0.1274	0.954667
239	N	0.441373	0.943657	0.972494
240	C	0.490349	0.941168	0.702503
241	C	0.528399	0.96851	0.736068
242	C	0.554349	0.024283	0.738642
243	H	0.537826	0.948119	0.758631
244	H	0.582187	0.043338	0.762979
245	H	0.473306	0.863592	0.719957
246	H	0.389487	0.872945	0.942436
247	N	0.404997	0.806678	0.661149
248	N	0.580625	0.190517	0.009152
249	C	0.859517	0.418843	0.009808
250	C	0.888811	0.40827	0.978166
251	N	0.942644	0.437592	0.97773
252	C	0.971155	0.477181	0.007372
253	C	0.943902	0.488704	0.707586
254	C	0.887829	0.458909	0.708478
255	H	0.867407	0.466409	0.732465
256	C	0.027141	0.507024	0.671527
257	C	0.107385	0.525073	0.968103
258	C	0.138487	0.566896	0.664555
259	C	0.112134	0.578563	0.698292
260	H	0.870011	0.379319	0.954654
261	N	0.053758	0.497174	0.972474
262	C	0.056273	0.548625	0.702503
263	C	0.028941	0.559337	0.736074
264	C	0.973168	0.529542	0.738639
265	H	0.049339	0.589141	0.758644
266	H	0.954123	0.538306	0.762999
267	H	0.133855	0.609134	0.719961
268	H	0.124463	0.516006	0.942396
269	N	0.190748	0.597761	0.661119
270	N	0.806911	0.389607	0.009157
