data_C189H27N135_2018-02-15_10:37:51
#******************************************
#
# CIF file created by Zeo++
# Zeo++ is an open source package to
# analyze microporous materials
#
#*******************************************

_cell_length_a		29.9809   
_cell_length_b		29.9809   
_cell_length_c		29.5056   
_cell_angle_alpha		90   
_cell_angle_beta		90   
_cell_angle_gamma		120   

_symmetry_space_group_name_H-M		'P1'
_symmetry_Int_Tables_number		1
_symmetry_cell_setting		Monoclinic

loop_
_symmetry_equiv_pos_as_xyz
'+x,+y,+z'

loop_
_atom_site_label
_atom_site_type_symbol
_atom_site_fract_x
_atom_site_fract_y
_atom_site_fract_z
1	C	0.06736	0.542551	0.367225
2	N	0.041323	0.489928	0.033662
3	C	0.035401	0.565228	0.368912
4	C	0.051829	0.614373	0.36754
5	N	0.065941	0.657705	0.366099
6	C	0.06736	0.542551	0.700561
7	N	0.041323	0.489928	0.366994
8	C	0.035401	0.565228	0.702245
9	C	0.051829	0.614373	0.700876
10	N	0.065941	0.657705	0.699436
11	C	0.06736	0.542551	0.033892
12	N	0.041323	0.489928	0.70033
13	C	0.035401	0.565228	0.035578
14	C	0.051829	0.614373	0.034207
15	N	0.065941	0.657705	0.032767
16	C	0.198062	0.646051	0.000486
17	N	0.149847	0.621644	0.01886
18	C	0.122132	0.569068	0.025301
19	N	0.14662	0.541326	0.016645
20	C	0.194706	0.563368	0.997907
21	N	0.186131	0.738674	0.08029
22	C	0.198062	0.646051	0.333819
23	N	0.149847	0.621644	0.352194
24	C	0.122132	0.569068	0.358633
25	N	0.14662	0.541326	0.34998
26	C	0.194706	0.563368	0.331241
27	N	0.186131	0.738674	0.413623
28	C	0.198062	0.646051	0.667154
29	N	0.149847	0.621644	0.685526
30	C	0.122132	0.569068	0.691969
31	N	0.14662	0.541326	0.683313
32	C	0.194706	0.563368	0.664575
33	N	0.186131	0.738674	0.746959
34	N	0.216723	0.614523	0.990654
35	C	0.229293	0.544557	0.990421
36	N	0.234925	0.511654	0.01901
37	C	0.235339	0.699078	0.994657
38	C	0.244676	0.743096	0.020437
39	C	0.213661	0.740747	0.052244
40	N	0.216723	0.614523	0.323985
41	C	0.229293	0.544557	0.323754
42	N	0.234925	0.511654	0.352343
43	C	0.235339	0.699078	0.32799
44	C	0.244676	0.743096	0.35377
45	C	0.213661	0.740747	0.385577
46	N	0.216723	0.614523	0.657318
47	C	0.229293	0.544557	0.657088
48	N	0.234925	0.511654	0.685679
49	C	0.235339	0.699078	0.661324
50	C	0.244676	0.743096	0.687106
51	C	0.213661	0.740747	0.71891
52	C	0.374992	0.556343	0.000422
53	N	0.399343	0.532471	0.018789
54	C	0.451924	0.557263	0.025206
55	N	0.479736	0.609501	0.016568
56	C	0.457761	0.63561	0.997836
57	N	0.406606	0.606519	0.99061
58	C	0.464245	0.822571	0.000754
59	N	0.488225	0.870903	0.018898
60	C	0.463494	0.898764	0.025224
61	N	0.411265	0.874384	0.016595
62	C	0.385101	0.82621	0.99806
63	N	0.414078	0.804014	0.990878
64	C	0.828666	0.375307	0.002198
65	N	0.8771	0.40101	0.020221
66	C	0.902929	0.453609	0.026824
67	N	0.876978	0.479938	0.018447
68	C	0.82873	0.456421	4.9e-05
69	N	0.808322	0.405485	0.992607
70	C	0.645693	0.457726	0.00189
71	N	0.619943	0.480307	0.02012
72	C	0.567341	0.453493	0.026669
73	N	0.541053	0.401245	0.018161
74	C	0.564598	0.376609	0.999626
75	N	0.615548	0.407203	0.992271
76	C	0.56348	0.192191	0.001717
77	N	0.540816	0.143861	0.019964
78	C	0.567561	0.118001	0.026491
79	N	0.619802	0.14386	0.017969
80	C	0.644505	0.191991	0.999334
81	N	0.613981	0.212447	0.992054
82	C	0.989112	0.459174	0.035127
83	C	0.957453	0.481752	0.368174
84	N	0.983187	0.53422	0.36835
85	H	0.973761	0.420228	0.03308
86	C	0.478391	0.528963	0.367137
87	N	0.531018	0.555545	0.033883
88	C	0.561764	0.534081	0.035372
89	C	0.539189	0.479857	0.368089
90	N	0.486719	0.453108	0.367933
91	C	0.45571	0.474311	0.368475
92	H	0.600724	0.557691	0.033566
93	C	0.40658	0.4416	0.366693
94	N	0.363267	0.412391	0.364876
95	C	0.49188	0.953582	0.36692
96	N	0.465354	0.979675	0.033759
97	C	0.486915	0.031897	0.035205
98	C	0.541155	0.063501	0.367987
99	N	0.567804	0.037676	0.367794
100	C	0.546538	0.985456	0.368323
101	H	0.463368	0.04733	0.033546
102	C	0.579197	0.968972	0.366537
103	N	0.608359	0.954807	0.364713
104	C	0.322006	0.540829	0.994691
105	N	0.31335	0.569361	0.297198
106	C	0.269417	0.570358	0.291828
107	C	0.277893	0.506081	0.020332
108	H	0.26943	0.595743	0.268694
109	C	0.280037	0.47696	0.051816
110	N	0.281929	0.451102	0.079565
111	C	0.47995	0.785269	0.994871
112	N	0.451521	0.748149	0.297298
113	C	0.450739	0.703345	0.291777
114	C	0.476546	0.688998	0.990343
115	N	0.509319	0.727513	0.019017
116	C	0.514858	0.776045	0.020419
117	H	0.425401	0.677987	0.268607
118	C	0.543735	0.807157	0.052081
119	N	0.569386	0.834784	0.079989
120	N	0.272513	0.707871	0.297105
121	C	0.317301	0.751927	0.291546
122	C	0.331707	0.791917	0.990312
123	N	0.293239	0.786028	0.019113
124	H	0.342774	0.751812	0.2686
125	C	0.699084	0.475046	0.995996
126	N	0.70891	0.447154	0.298697
127	C	0.753547	0.447512	0.29344
128	C	0.793229	0.474022	0.992264
129	N	0.786314	0.50612	0.020835
130	C	0.74261	0.510437	0.021919
131	H	0.754217	0.422208	0.270629
132	C	0.739288	0.538703	0.053572
133	N	0.736308	0.563815	0.081449
134	C	0.546344	0.228424	0.995921
135	N	0.574296	0.266149	0.298649
136	C	0.573883	0.310392	0.293325
137	C	0.547131	0.32351	0.991953
138	N	0.514962	0.284443	0.020455
139	C	0.510799	0.236498	0.021662
140	H	0.599223	0.336362	0.270528
141	C	0.482224	0.204651	0.053046
142	N	0.456845	0.17634	0.080685
143	C	0.792729	0.321932	0.995989
144	N	0.755061	0.312232	0.298674
145	C	0.710834	0.267579	0.293249
146	C	0.697624	0.227638	0.99181
147	N	0.736592	0.234501	0.020422
148	C	0.784528	0.278287	0.02176
149	H	0.68499	0.267063	0.270365
150	C	0.816222	0.281529	0.053283
151	N	0.844401	0.284434	0.081044
152	C	0.374992	0.556343	0.333756
153	N	0.399343	0.532471	0.352122
154	C	0.451924	0.557263	0.358542
155	N	0.479736	0.609501	0.349903
156	C	0.457761	0.63561	0.331169
157	N	0.406606	0.606519	0.323943
158	C	0.464245	0.822571	0.334086
159	N	0.488225	0.870903	0.352231
160	C	0.463494	0.898764	0.358558
161	N	0.411265	0.874384	0.34993
162	C	0.385101	0.82621	0.331393
163	N	0.414078	0.804014	0.324209
164	C	0.828666	0.375307	0.335529
165	N	0.8771	0.40101	0.353556
166	C	0.902929	0.453609	0.360158
167	N	0.876978	0.479938	0.35178
168	C	0.82873	0.456421	0.33338
169	N	0.808322	0.405485	0.325938
170	C	0.645693	0.457726	0.33522
171	N	0.619943	0.480307	0.353454
172	C	0.567341	0.453493	0.360002
173	N	0.541053	0.401245	0.351495
174	C	0.564598	0.376609	0.332959
175	N	0.615548	0.407203	0.325605
176	C	0.56348	0.192191	0.335049
177	N	0.540816	0.143861	0.353298
178	C	0.567561	0.118001	0.359826
179	N	0.619802	0.14386	0.351302
180	C	0.644505	0.191991	0.332667
181	N	0.613981	0.212447	0.325388
182	C	0.989112	0.459174	0.368462
183	C	0.957453	0.481752	0.70151
184	N	0.983187	0.53422	0.701683
185	H	0.973761	0.420228	0.366415
186	C	0.478391	0.528963	0.700469
187	N	0.531018	0.555545	0.367218
188	C	0.561764	0.534081	0.368706
189	C	0.539189	0.479857	0.701422
190	N	0.486719	0.453108	0.701266
191	C	0.45571	0.474311	0.701808
192	H	0.600724	0.557691	0.366899
193	C	0.40658	0.4416	0.700025
194	N	0.363267	0.412391	0.698209
195	C	0.49188	0.953582	0.700256
196	N	0.465354	0.979675	0.367092
197	C	0.486915	0.031897	0.36854
198	C	0.541155	0.063501	0.70132
199	N	0.567804	0.037676	0.701127
200	C	0.546538	0.985456	0.701656
201	H	0.463368	0.04733	0.366879
202	C	0.579197	0.968972	0.699869
203	N	0.608359	0.954807	0.698046
204	C	0.322006	0.540829	0.328024
205	N	0.31335	0.569361	0.63053
206	C	0.269417	0.570358	0.625162
207	C	0.277893	0.506081	0.353665
208	H	0.26943	0.595743	0.602027
209	C	0.280037	0.47696	0.38515
210	N	0.281929	0.451102	0.412897
211	C	0.47995	0.785269	0.328203
212	N	0.451521	0.748149	0.630632
213	C	0.450739	0.703345	0.625111
214	C	0.476546	0.688998	0.323675
215	N	0.509319	0.727513	0.35235
216	C	0.514858	0.776045	0.353753
217	H	0.425401	0.677987	0.601939
218	C	0.543735	0.807157	0.385414
219	N	0.569386	0.834784	0.413324
220	N	0.272513	0.707871	0.630439
221	C	0.317301	0.751927	0.62488
222	C	0.331707	0.791917	0.323643
223	N	0.293239	0.786028	0.352448
224	H	0.342774	0.751812	0.601932
225	C	0.699084	0.475046	0.329329
226	N	0.70891	0.447154	0.632032
227	C	0.753547	0.447512	0.626775
228	C	0.793229	0.474022	0.325597
229	N	0.786314	0.50612	0.35417
230	C	0.74261	0.510437	0.355254
231	H	0.754217	0.422208	0.603962
232	C	0.739288	0.538703	0.386906
233	N	0.736308	0.563815	0.414782
234	C	0.546344	0.228424	0.329255
235	N	0.574296	0.266149	0.631984
236	C	0.573883	0.310392	0.62666
237	C	0.547131	0.32351	0.325286
238	N	0.514962	0.284443	0.35379
239	C	0.510799	0.236498	0.354996
240	H	0.599223	0.336362	0.603861
241	C	0.482224	0.204651	0.38638
242	N	0.456845	0.17634	0.414019
243	C	0.792729	0.321932	0.329322
244	N	0.755061	0.312232	0.632008
245	C	0.710834	0.267579	0.626582
246	C	0.697624	0.227638	0.325142
247	N	0.736592	0.234501	0.353756
248	C	0.784528	0.278287	0.355095
249	H	0.68499	0.267063	0.603698
250	C	0.816222	0.281529	0.386618
251	N	0.844401	0.284434	0.414378
252	C	0.374992	0.556343	0.667089
253	N	0.399343	0.532471	0.685455
254	C	0.451924	0.557263	0.691874
255	N	0.479736	0.609501	0.683235
256	C	0.457761	0.63561	0.664503
257	N	0.406606	0.606519	0.657278
258	C	0.464245	0.822571	0.667418
259	N	0.488225	0.870903	0.685567
260	C	0.463494	0.898764	0.691891
261	N	0.411265	0.874384	0.683262
262	C	0.385101	0.82621	0.664727
263	N	0.414078	0.804014	0.657542
264	C	0.828666	0.375307	0.668862
265	N	0.8771	0.40101	0.686889
266	C	0.902929	0.453609	0.693491
267	N	0.876978	0.479938	0.685113
268	C	0.82873	0.456421	0.666713
269	N	0.808322	0.405485	0.65927
270	C	0.645693	0.457726	0.668553
271	N	0.619943	0.480307	0.686787
272	C	0.567341	0.453493	0.693338
273	N	0.541053	0.401245	0.684828
274	C	0.564598	0.376609	0.666293
275	N	0.615548	0.407203	0.658938
276	C	0.56348	0.192191	0.668384
277	N	0.540816	0.143861	0.686631
278	C	0.567561	0.118001	0.693159
279	N	0.619802	0.14386	0.684638
280	C	0.644505	0.191991	0.666001
281	N	0.613981	0.212447	0.658721
282	C	0.989112	0.459174	0.701794
283	C	0.957453	0.481752	0.034841
284	N	0.983187	0.53422	0.035015
285	H	0.973761	0.420228	0.699747
286	C	0.478391	0.528963	0.033802
287	N	0.531018	0.555545	0.700551
288	C	0.561764	0.534081	0.702039
289	C	0.539189	0.479857	0.034753
290	N	0.486719	0.453108	0.034598
291	C	0.45571	0.474311	0.035141
292	H	0.600724	0.557691	0.700235
293	C	0.40658	0.4416	0.033359
294	N	0.363267	0.412391	0.031541
295	C	0.49188	0.953582	0.033587
296	N	0.465354	0.979675	0.700425
297	C	0.486915	0.031897	0.701872
298	C	0.541155	0.063501	0.034654
299	N	0.567804	0.037676	0.034459
300	C	0.546538	0.985456	0.034989
301	H	0.463368	0.04733	0.700215
302	C	0.579197	0.968972	0.033201
303	N	0.608359	0.954807	0.031378
304	C	0.322006	0.540829	0.661358
305	N	0.31335	0.569361	0.963866
306	C	0.269417	0.570358	0.958495
307	C	0.277893	0.506081	0.687001
308	H	0.26943	0.595743	0.93536
309	C	0.280037	0.47696	0.718483
310	N	0.281929	0.451102	0.746233
311	C	0.47995	0.785269	0.661538
312	N	0.451521	0.748149	0.963965
313	C	0.450739	0.703345	0.958444
314	C	0.476546	0.688998	0.65701
315	N	0.509319	0.727513	0.685686
316	C	0.514858	0.776045	0.687085
317	H	0.425401	0.677987	0.935275
318	C	0.543735	0.807157	0.718751
319	N	0.569386	0.834784	0.746657
320	N	0.272513	0.707871	0.963771
321	C	0.317301	0.751927	0.958213
322	C	0.331707	0.791917	0.656976
323	N	0.293239	0.786028	0.685781
324	H	0.342774	0.751812	0.935268
325	C	0.699084	0.475046	0.662663
326	N	0.70891	0.447154	0.965364
327	C	0.753547	0.447512	0.960108
328	C	0.793229	0.474022	0.658932
329	N	0.786314	0.50612	0.687502
330	C	0.74261	0.510437	0.688587
331	H	0.754217	0.422208	0.937295
332	C	0.739288	0.538703	0.720238
333	N	0.736308	0.563815	0.748118
334	C	0.546344	0.228424	0.662588
335	N	0.574296	0.266149	0.965317
336	C	0.573883	0.310392	0.959993
337	C	0.547131	0.32351	0.65862
338	N	0.514962	0.284443	0.687123
339	C	0.510799	0.236498	0.688329
340	H	0.599223	0.336362	0.937197
341	C	0.482224	0.204651	0.719713
342	N	0.456845	0.17634	0.747352
343	C	0.792729	0.321932	0.662656
344	N	0.755061	0.312232	0.965341
345	C	0.710834	0.267579	0.959915
346	C	0.697624	0.227638	0.658474
347	N	0.736592	0.234501	0.687089
348	C	0.784528	0.278287	0.688428
349	H	0.68499	0.267063	0.937034
350	C	0.816222	0.281529	0.71995
351	N	0.844401	0.284434	0.747711
