data_C216H144N18_2018-02-15_10:42:06
#******************************************
#
# CIF file created by Zeo++
# Zeo++ is an open source package to
# analyze microporous materials
#
#*******************************************

_cell_length_a		37.2824   
_cell_length_b		37.2571   
_cell_length_c		29.7366   
_cell_angle_alpha		90   
_cell_angle_beta		90   
_cell_angle_gamma		120.037   

_symmetry_space_group_name_H-M		'P1'
_symmetry_Int_Tables_number		1
_symmetry_cell_setting		Monoclinic

loop_
_symmetry_equiv_pos_as_xyz
'+x,+y,+z'

loop_
_atom_site_label
_atom_site_type_symbol
_atom_site_fract_x
_atom_site_fract_y
_atom_site_fract_z
1	C	0.460859	0.914875	0.006196
2	C	0.477174	0.888053	0.345678
3	C	0.451445	0.844663	0.34519
4	C	0.408287	0.826333	0.004873
5	C	0.391777	0.85282	0.998307
6	C	0.417675	0.896269	0.998465
7	C	0.382155	0.783507	0.006741
8	C	0.38819	0.756192	0.316322
9	C	0.363142	0.713102	0.318294
10	C	0.319314	0.693132	0.317769
11	C	0.294274	0.649354	0.316688
12	C	0.314127	0.625406	0.315056
13	C	0.357791	0.644347	0.315753
14	C	0.381825	0.6881	0.317112
15	C	0.376723	0.620471	0.311532
16	C	0.401465	0.618595	0.009983
17	C	0.422692	0.596563	0.340069
18	C	0.461417	0.612186	0.02858
19	C	0.406556	0.558025	0.317528
20	C	0.428392	0.536188	0.31674
21	C	0.466681	0.551424	0.006107
22	C	0.482911	0.59008	0.028332
23	C	0.251253	0.631378	0.314158
24	C	0.223773	0.597627	0.003964
25	C	0.181029	0.5813	0.335683
26	C	0.163099	0.606233	0.011016
27	C	0.15421	0.538508	0.327969
28	C	0.110835	0.5213	0.328518
29	C	0.092579	0.545961	0.004469
30	C	0.119783	0.588902	0.011846
31	H	0.508241	0.899773	0.350362
32	H	0.464521	0.826562	0.350675
33	H	0.404304	0.914252	0.994289
34	H	0.360603	0.840675	0.993579
35	H	0.413521	0.701981	0.316274
36	H	0.305348	0.710845	0.317233
37	H	0.296602	0.593773	0.312544
38	H	0.181455	0.637256	0.017401
39	H	0.474376	0.63992	0.045324
40	H	0.510904	0.602872	0.044391
41	H	0.415104	0.508049	0.300862
42	H	0.378214	0.544904	0.3022
43	H	0.108437	0.608413	0.017617
44	H	0.092642	0.490073	0.323381
45	H	0.166056	0.519381	0.322058
46	H	0.405995	0.63521	0.037838
47	H	0.371875	0.604751	0.283048
48	H	0.357693	0.772919	0.026987
49	H	0.412916	0.767329	0.296335
50	H	0.234185	0.583303	0.023776
51	H	0.240357	0.645569	0.294766
52	C	0.557098	0.090901	0.008562
53	C	0.536972	0.113855	0.332804
54	C	0.558805	0.157582	0.333357
55	C	0.601856	0.180061	0.008977
56	C	0.622231	0.157359	0.017266
57	C	0.600338	0.113738	0.016834
58	C	0.624291	0.223201	0.011737
59	C	0.622391	0.249049	0.314798
60	C	0.646636	0.292032	0.31709
61	C	0.690445	0.311931	0.317136
62	C	0.715215	0.35566	0.316671
63	C	0.695324	0.379548	0.315153
64	C	0.65162	0.360518	0.315078
65	C	0.627658	0.316718	0.315648
66	C	0.632968	0.384649	0.310673
67	C	0.60603	0.384819	0.007386
68	C	0.58629	0.408206	0.336988
69	C	0.544996	0.391324	0.019104
70	C	0.606751	0.449544	0.320786
71	C	0.586586	0.472983	0.319788
72	C	0.545441	0.455819	0.001953
73	C	0.524844	0.41476	0.018354
74	C	0.758181	0.374259	0.314047
75	C	0.784452	0.403599	0.009442
76	C	0.827572	0.423835	0.33985
77	C	0.849646	0.402541	0.999521
78	C	0.850716	0.467222	0.346293
79	C	0.894314	0.488535	0.345971
80	C	0.916683	0.467396	0.006243
81	C	0.893349	0.424009	0.99899
82	H	0.505714	0.098906	0.327115
83	H	0.542765	0.172857	0.328015
84	H	0.616761	0.098911	0.022269
85	H	0.653398	0.172427	0.02374
86	H	0.595975	0.30262	0.314181
87	H	0.704509	0.294293	0.31675
88	H	0.712927	0.411232	0.313252
89	H	0.834083	0.371016	0.995607
90	H	0.529268	0.361802	0.031737
91	H	0.495292	0.401862	0.030645
92	H	0.602584	0.50306	0.308843
93	H	0.637016	0.463483	0.310665
94	H	0.908003	0.407232	0.994702
95	H	0.909509	0.519995	0.35013
96	H	0.835983	0.483853	0.351412
97	H	0.598861	0.366241	0.034022
98	H	0.640432	0.402712	0.283647
99	H	0.644355	0.235493	0.037035
100	H	0.602862	0.237227	0.289039
101	H	0.772485	0.412763	0.033787
102	H	0.769677	0.365035	0.289322
103	C	0.526516	0.480433	0.004677
104	C	0.528875	0.502453	0.044133
105	C	0.509472	0.526509	0.045246
106	C	0.487639	0.528155	0.0071
107	N	0.486638	0.505435	0.304007
108	H	0.510632	0.541782	0.074261
109	H	0.544394	0.501079	0.071874
110	N	0.504892	0.483134	0.302654
111	C	0.534468	0.046481	0.009564
112	C	0.545893	0.022623	0.036693
113	C	0.522142	0.979116	0.036027
114	C	0.486676	0.95901	0.008268
115	N	0.477268	0.98416	0.317195
116	H	0.530385	0.962628	0.056868
117	H	0.570644	0.036392	0.058056
118	N	0.499473	0.02476	0.317788
119	C	0.961042	0.488817	0.007424
120	C	0.984985	0.524205	0.034398
121	C	0.028451	0.543623	0.034004
122	C	0.048453	0.527916	0.00657
123	N	0.023133	0.493288	0.315614
124	H	0.04495	0.568411	0.054782
125	H	0.971263	0.535482	0.055433
126	N	0.982571	0.475119	0.316005
127	C	0.460859	0.914875	0.339531
128	C	0.477174	0.888053	0.679011
129	C	0.451445	0.844663	0.678523
130	C	0.408287	0.826333	0.338206
131	C	0.391777	0.85282	0.33164
132	C	0.417675	0.896269	0.331797
133	C	0.382155	0.783507	0.340076
134	C	0.38819	0.756192	0.649657
135	C	0.363142	0.713102	0.651627
136	C	0.319314	0.693132	0.651103
137	C	0.294274	0.649354	0.65002
138	C	0.314127	0.625406	0.648389
139	C	0.357791	0.644347	0.649085
140	C	0.381825	0.6881	0.650447
141	C	0.376723	0.620471	0.644865
142	C	0.401465	0.618595	0.343317
143	C	0.422692	0.596563	0.673402
144	C	0.461417	0.612186	0.361914
145	C	0.406556	0.558025	0.650861
146	C	0.428392	0.536188	0.650074
147	C	0.466681	0.551424	0.33944
148	C	0.482911	0.59008	0.361665
149	C	0.251253	0.631378	0.647491
150	C	0.223773	0.597627	0.337298
151	C	0.181029	0.5813	0.669017
152	C	0.163099	0.606233	0.34435
153	C	0.15421	0.538508	0.661302
154	C	0.110835	0.5213	0.66185
155	C	0.092579	0.545961	0.337802
156	C	0.119783	0.588902	0.34518
157	H	0.508241	0.899773	0.683695
158	H	0.464521	0.826562	0.684008
159	H	0.404304	0.914252	0.32762
160	H	0.360603	0.840675	0.326912
161	H	0.413521	0.701981	0.649606
162	H	0.305348	0.710845	0.650568
163	H	0.296602	0.593773	0.645877
164	H	0.181455	0.637256	0.350736
165	H	0.474376	0.63992	0.378658
166	H	0.510904	0.602872	0.377726
167	H	0.415104	0.508049	0.634194
168	H	0.378214	0.544904	0.635533
169	H	0.108437	0.608413	0.350951
170	H	0.092642	0.490073	0.656715
171	H	0.166056	0.519381	0.655394
172	H	0.405995	0.63521	0.371172
173	H	0.371875	0.604751	0.616381
174	H	0.357693	0.772919	0.36032
175	H	0.412916	0.767329	0.629668
176	H	0.234185	0.583303	0.357112
177	H	0.240357	0.645569	0.628101
178	C	0.557098	0.090901	0.341895
179	C	0.536972	0.113855	0.666138
180	C	0.558805	0.157582	0.666689
181	C	0.601856	0.180061	0.342312
182	C	0.622231	0.157359	0.350601
183	C	0.600338	0.113738	0.350167
184	C	0.624291	0.223201	0.345073
185	C	0.622391	0.249049	0.648133
186	C	0.646636	0.292032	0.650423
187	C	0.690445	0.311931	0.65047
188	C	0.715215	0.35566	0.650003
189	C	0.695324	0.379548	0.648486
190	C	0.65162	0.360518	0.648412
191	C	0.627658	0.316718	0.648981
192	C	0.632968	0.384649	0.644007
193	C	0.60603	0.384819	0.340721
194	C	0.58629	0.408206	0.670321
195	C	0.544996	0.391324	0.352437
196	C	0.606751	0.449544	0.654119
197	C	0.586586	0.472983	0.65312
198	C	0.545441	0.455819	0.335285
199	C	0.524844	0.41476	0.351687
200	C	0.758181	0.374259	0.64738
201	C	0.784452	0.403599	0.342776
202	C	0.827572	0.423835	0.673183
203	C	0.849646	0.402541	0.332856
204	C	0.850716	0.467222	0.679626
205	C	0.894314	0.488535	0.679304
206	C	0.916683	0.467396	0.339578
207	C	0.893349	0.424009	0.332321
208	H	0.505714	0.098906	0.660448
209	H	0.542765	0.172857	0.661349
210	H	0.616761	0.098911	0.355602
211	H	0.653398	0.172427	0.357075
212	H	0.595975	0.30262	0.647514
213	H	0.704509	0.294293	0.650084
214	H	0.712927	0.411232	0.646586
215	H	0.834083	0.371016	0.328938
216	H	0.529268	0.361802	0.365072
217	H	0.495292	0.401862	0.363979
218	H	0.602584	0.50306	0.642178
219	H	0.637016	0.463483	0.644
220	H	0.908003	0.407232	0.328036
221	H	0.909509	0.519995	0.683463
222	H	0.835983	0.483853	0.684745
223	H	0.598861	0.366241	0.367355
224	H	0.640432	0.402712	0.61698
225	H	0.644355	0.235493	0.370368
226	H	0.602862	0.237227	0.622374
227	H	0.772485	0.412763	0.36712
228	H	0.769677	0.365035	0.622656
229	C	0.526516	0.480433	0.338011
230	C	0.528875	0.502453	0.377467
231	C	0.509472	0.526509	0.37858
232	C	0.487639	0.528155	0.340432
233	N	0.486638	0.505435	0.637338
234	H	0.510632	0.541782	0.407595
235	H	0.544394	0.501079	0.405207
236	N	0.504892	0.483134	0.635987
237	C	0.534468	0.046481	0.342897
238	C	0.545893	0.022623	0.370028
239	C	0.522142	0.979116	0.369359
240	C	0.486676	0.95901	0.341602
241	N	0.477268	0.98416	0.650528
242	H	0.530385	0.962628	0.390202
243	H	0.570644	0.036392	0.391389
244	N	0.499473	0.02476	0.651123
245	C	0.961042	0.488817	0.340758
246	C	0.984985	0.524205	0.367732
247	C	0.028451	0.543623	0.367338
248	C	0.048453	0.527916	0.339904
249	N	0.023133	0.493288	0.648947
250	H	0.04495	0.568411	0.388114
251	H	0.971263	0.535482	0.388766
252	N	0.982571	0.475119	0.649341
253	C	0.460859	0.914875	0.672864
254	C	0.477174	0.888053	0.012344
255	C	0.451445	0.844663	0.011857
256	C	0.408287	0.826333	0.671542
257	C	0.391777	0.85282	0.664974
258	C	0.417675	0.896269	0.665132
259	C	0.382155	0.783507	0.673408
260	C	0.38819	0.756192	0.98299
261	C	0.363142	0.713102	0.98496
262	C	0.319314	0.693132	0.984436
263	C	0.294274	0.649354	0.983356
264	C	0.314127	0.625406	0.981722
265	C	0.357791	0.644347	0.982421
266	C	0.381825	0.6881	0.98378
267	C	0.376723	0.620471	0.978201
268	C	0.401465	0.618595	0.67665
269	C	0.422692	0.596563	0.006735
270	C	0.461417	0.612186	0.695247
271	C	0.406556	0.558025	0.984194
272	C	0.428392	0.536188	0.983407
273	C	0.466681	0.551424	0.672773
274	C	0.482911	0.59008	0.694998
275	C	0.251253	0.631378	0.980824
276	C	0.223773	0.597627	0.670631
277	C	0.181029	0.5813	0.00235
278	C	0.163099	0.606233	0.677683
279	C	0.15421	0.538508	0.994635
280	C	0.110835	0.5213	0.995187
281	C	0.092579	0.545961	0.671135
282	C	0.119783	0.588902	0.678513
283	H	0.508241	0.899773	0.01703
284	H	0.464521	0.826562	0.01734
285	H	0.404304	0.914252	0.660952
286	H	0.360603	0.840675	0.660246
287	H	0.413521	0.701981	0.982943
288	H	0.305348	0.710845	0.983901
289	H	0.296602	0.593773	0.979213
290	H	0.181455	0.637256	0.684069
291	H	0.474376	0.63992	0.711991
292	H	0.510904	0.602872	0.711059
293	H	0.415104	0.508049	0.967531
294	H	0.378214	0.544904	0.968866
295	H	0.108437	0.608413	0.684284
296	H	0.092642	0.490073	0.990048
297	H	0.166056	0.519381	0.988727
298	H	0.405995	0.63521	0.704505
299	H	0.371875	0.604751	0.949714
300	H	0.357693	0.772919	0.693653
301	H	0.412916	0.767329	0.963001
302	H	0.234185	0.583303	0.690445
303	H	0.240357	0.645569	0.961434
304	C	0.557098	0.090901	0.675231
305	C	0.536972	0.113855	0.999471
306	C	0.558805	0.157582	2.2e-05
307	C	0.601856	0.180061	0.675645
308	C	0.622231	0.157359	0.683934
309	C	0.600338	0.113738	0.6835
310	C	0.624291	0.223201	0.678406
311	C	0.622391	0.249049	0.981466
312	C	0.646636	0.292032	0.983756
313	C	0.690445	0.311931	0.983803
314	C	0.715215	0.35566	0.983339
315	C	0.695324	0.379548	0.981819
316	C	0.65162	0.360518	0.981745
317	C	0.627658	0.316718	0.982317
318	C	0.632968	0.384649	0.97734
319	C	0.60603	0.384819	0.674054
320	C	0.58629	0.408206	0.003658
321	C	0.544996	0.391324	0.68577
322	C	0.606751	0.449544	0.987452
323	C	0.586586	0.472983	0.986457
324	C	0.545441	0.455819	0.66862
325	C	0.524844	0.41476	0.68502
326	C	0.758181	0.374259	0.980713
327	C	0.784452	0.403599	0.676109
328	C	0.827572	0.423835	0.006517
329	C	0.849646	0.402541	0.666188
330	C	0.850716	0.467222	0.01296
331	C	0.894314	0.488535	0.012637
332	C	0.916683	0.467396	0.672911
333	C	0.893349	0.424009	0.665654
334	H	0.505714	0.098906	0.993781
335	H	0.542765	0.172857	0.994682
336	H	0.616761	0.098911	0.688938
337	H	0.653398	0.172427	0.690408
338	H	0.595975	0.30262	0.980847
339	H	0.704509	0.294293	0.983417
340	H	0.712927	0.411232	0.979919
341	H	0.834083	0.371016	0.662271
342	H	0.529268	0.361802	0.698405
343	H	0.495292	0.401862	0.697312
344	H	0.602584	0.50306	0.975511
345	H	0.637016	0.463483	0.977333
346	H	0.908003	0.407232	0.661369
347	H	0.909509	0.519995	0.016797
348	H	0.835983	0.483853	0.018078
349	H	0.598861	0.366241	0.700691
350	H	0.640432	0.402712	0.950316
351	H	0.644355	0.235493	0.703704
352	H	0.602862	0.237227	0.955707
353	H	0.772485	0.412763	0.700453
354	H	0.769677	0.365035	0.955989
355	C	0.526516	0.480433	0.671344
356	C	0.528875	0.502453	0.7108
357	C	0.509472	0.526509	0.711913
358	C	0.487639	0.528155	0.673768
359	N	0.486638	0.505435	0.970675
360	H	0.510632	0.541782	0.740928
361	H	0.544394	0.501079	0.73854
362	N	0.504892	0.483134	0.96932
363	C	0.534468	0.046481	0.67623
364	C	0.545893	0.022623	0.703361
365	C	0.522142	0.979116	0.702696
366	C	0.486676	0.95901	0.674935
367	N	0.477268	0.98416	0.983864
368	H	0.530385	0.962628	0.723535
369	H	0.570644	0.036392	0.724722
370	N	0.499473	0.02476	0.984456
371	C	0.961042	0.488817	0.674091
372	C	0.984985	0.524205	0.701065
373	C	0.028451	0.543623	0.700671
374	C	0.048453	0.527916	0.673237
375	N	0.023133	0.493288	0.982283
376	H	0.04495	0.568411	0.72145
377	H	0.971263	0.535482	0.722099
378	N	0.982571	0.475119	0.982673
