data_C360H216N72O36_2018-02-15_10:40:10
#******************************************
#
# CIF file created by Zeo++
# Zeo++ is an open source package to
# analyze microporous materials
#
#*******************************************

_cell_length_a		29.7625   
_cell_length_b		29.7625   
_cell_length_c		30.0146   
_cell_angle_alpha		90   
_cell_angle_beta		90   
_cell_angle_gamma		120   

_symmetry_space_group_name_H-M		'P1'
_symmetry_Int_Tables_number		1
_symmetry_cell_setting		Monoclinic

loop_
_symmetry_equiv_pos_as_xyz
'+x,+y,+z'

loop_
_atom_site_label
_atom_site_type_symbol
_atom_site_fract_x
_atom_site_fract_y
_atom_site_fract_z
1	C	0.110367	0.305816	0.008513
2	C	0.139809	0.360732	0.008613
3	C	0.194818	0.388895	0.008463
4	C	0.220294	0.359452	0.008377
5	C	0.193449	0.304437	0.008329
6	C	0.138532	0.278966	0.008423
7	H	0.259817	0.378586	0.009156
8	H	0.118144	0.239445	0.009249
9	H	0.120685	0.381128	0.009525
10	C	0.388909	0.190811	0.012337
11	C	0.356361	0.136203	0.011596
12	C	0.301302	0.11033	0.012279
13	C	0.279214	0.142858	0.011597
14	C	0.308403	0.197928	0.012265
15	C	0.36302	0.219995	0.011646
16	H	0.240184	0.125944	0.008515
17	H	0.385153	0.259024	0.00863
18	H	0.37324	0.114053	0.008608
19	C	0.282937	0.228002	0.012415
20	N	0.231293	0.202658	0.33573
21	C	0.199969	0.223425	0.333994
22	C	0.221212	0.276955	0.008951
23	N	0.272465	0.302388	0.019673
24	C	0.304352	0.281936	0.021947
25	H	0.16233	0.19984	0.324772
26	C	0.352667	0.314281	0.040234
27	C	0.358536	0.31354	0.08814
28	H	0.341713	0.273767	0.100357
29	H	0.339445	0.332128	0.104818
30	H	0.399608	0.334188	0.097124
31	O	0.378042	0.356947	0.022688
32	C	0.271254	0.054799	0.012492
33	N	0.296539	0.028496	0.335607
34	C	0.275737	0.476406	0.333841
35	C	0.222279	0.444135	0.009111
36	N	0.196922	0.469958	0.020122
37	C	0.217404	0.0223	0.022328
38	H	0.299271	0.462334	0.324499
39	C	0.185232	0.038436	0.040872
40	C	0.186868	0.045418	0.088742
41	H	0.226836	0.068587	0.100457
42	H	0.16866	0.007874	0.105627
43	H	0.166238	0.065778	0.097985
44	O	0.142586	0.021048	0.023304
45	C	0.444448	0.216278	0.012622
46	N	0.470747	0.267957	0.336073
47	C	0.022832	0.299312	0.334404
48	C	0.055127	0.278052	0.009232
49	N	0.029327	0.226773	0.019862
50	C	0.476993	0.194903	0.022219
51	H	0.036859	0.336974	0.325273
52	C	0.460942	0.146299	0.040022
53	C	0.454123	0.140703	0.087971
54	H	0.430698	0.157122	0.099918
55	H	0.491695	0.160227	0.104814
56	H	0.434076	0.099681	0.09711
57	O	0.478778	0.121289	0.022765
58	C	0.110367	0.305816	0.341847
59	C	0.139809	0.360732	0.341947
60	C	0.194818	0.388895	0.341797
61	C	0.220294	0.359452	0.34171
62	C	0.193449	0.304437	0.341664
63	C	0.138532	0.278966	0.341757
64	H	0.259817	0.378586	0.34249
65	H	0.118144	0.239445	0.342583
66	H	0.120685	0.381128	0.34286
67	C	0.388909	0.190811	0.345672
68	C	0.356361	0.136203	0.344929
69	C	0.301302	0.11033	0.345612
70	C	0.279214	0.142858	0.344932
71	C	0.308403	0.197928	0.345598
72	C	0.36302	0.219995	0.344979
73	H	0.240184	0.125944	0.34185
74	H	0.385153	0.259024	0.341964
75	H	0.37324	0.114053	0.34194
76	C	0.282937	0.228002	0.345748
77	N	0.231293	0.202658	0.669064
78	C	0.199969	0.223425	0.667325
79	C	0.221212	0.276955	0.342283
80	N	0.272465	0.302388	0.353008
81	C	0.304352	0.281936	0.35528
82	H	0.16233	0.19984	0.658106
83	C	0.352667	0.314281	0.373568
84	C	0.358536	0.31354	0.421475
85	H	0.341713	0.273767	0.433689
86	H	0.339445	0.332128	0.43815
87	H	0.399608	0.334188	0.430457
88	O	0.378042	0.356947	0.35602
89	C	0.271254	0.054799	0.345825
90	N	0.296539	0.028496	0.668938
91	C	0.275737	0.476406	0.667175
92	C	0.222279	0.444135	0.342443
93	N	0.196922	0.469958	0.353455
94	C	0.217404	0.0223	0.35566
95	H	0.299271	0.462334	0.657833
96	C	0.185232	0.038436	0.374205
97	C	0.186868	0.045418	0.422075
98	H	0.226836	0.068587	0.433789
99	H	0.16866	0.007874	0.43896
100	H	0.166238	0.065778	0.43132
101	O	0.142586	0.021048	0.356636
102	C	0.444448	0.216278	0.345955
103	N	0.470747	0.267957	0.669407
104	C	0.022832	0.299312	0.667738
105	C	0.055127	0.278052	0.342567
106	N	0.029327	0.226773	0.353195
107	C	0.476993	0.194903	0.355554
108	H	0.036859	0.336974	0.658606
109	C	0.460942	0.146299	0.373355
110	C	0.454123	0.140703	0.421305
111	H	0.430698	0.157122	0.433252
112	H	0.491695	0.160227	0.438147
113	H	0.434076	0.099681	0.430444
114	O	0.478778	0.121289	0.3561
115	C	0.110367	0.305816	0.675181
116	C	0.139809	0.360732	0.675278
117	C	0.194818	0.388895	0.675131
118	C	0.220294	0.359452	0.675045
119	C	0.193449	0.304437	0.674995
120	C	0.138532	0.278966	0.675091
121	H	0.259817	0.378586	0.675824
122	H	0.118144	0.239445	0.675914
123	H	0.120685	0.381128	0.676191
124	C	0.388909	0.190811	0.679003
125	C	0.356361	0.136203	0.678263
126	C	0.301302	0.11033	0.678946
127	C	0.279214	0.142858	0.678263
128	C	0.308403	0.197928	0.678933
129	C	0.36302	0.219995	0.678313
130	H	0.240184	0.125944	0.675181
131	H	0.385153	0.259024	0.675298
132	H	0.37324	0.114053	0.675275
133	C	0.282937	0.228002	0.679083
134	N	0.231293	0.202658	0.002396
135	C	0.199969	0.223425	0.00066
136	C	0.221212	0.276955	0.675618
137	N	0.272465	0.302388	0.686339
138	C	0.304352	0.281936	0.688615
139	H	0.16233	0.19984	0.991437
140	C	0.352667	0.314281	0.706903
141	C	0.358536	0.31354	0.754806
142	H	0.341713	0.273767	0.767023
143	H	0.339445	0.332128	0.771484
144	H	0.399608	0.334188	0.763792
145	O	0.378042	0.356947	0.689354
146	C	0.271254	0.054799	0.679159
147	N	0.296539	0.028496	0.002272
148	C	0.275737	0.476406	0.000509
149	C	0.222279	0.444135	0.675778
150	N	0.196922	0.469958	0.686789
151	C	0.217404	0.0223	0.688995
152	H	0.299271	0.462334	0.991168
153	C	0.185232	0.038436	0.707539
154	C	0.186868	0.045418	0.755409
155	H	0.226836	0.068587	0.767123
156	H	0.16866	0.007874	0.772294
157	H	0.166238	0.065778	0.764651
158	O	0.142586	0.021048	0.689971
159	C	0.444448	0.216278	0.679289
160	N	0.470747	0.267957	0.002739
161	C	0.022832	0.299312	0.001072
162	C	0.055127	0.278052	0.675898
163	N	0.029327	0.226773	0.686529
164	C	0.476993	0.194903	0.688885
165	H	0.036859	0.336974	0.99194
166	C	0.460942	0.146299	0.706689
167	C	0.454123	0.140703	0.754639
168	H	0.430698	0.157122	0.766584
169	H	0.491695	0.160227	0.771481
170	H	0.434076	0.099681	0.763778
171	O	0.478778	0.121289	0.689431
172	C	0.110369	0.80581	0.008513
173	C	0.139813	0.860727	0.008595
174	C	0.194821	0.88889	0.008452
175	C	0.220297	0.859447	0.008387
176	C	0.193452	0.804432	0.008351
177	C	0.138535	0.778962	0.008441
178	H	0.25982	0.878581	0.009167
179	H	0.118147	0.739439	0.009279
180	H	0.120688	0.881123	0.009494
181	C	0.388912	0.690811	0.012355
182	C	0.356367	0.636204	0.011613
183	C	0.301308	0.61033	0.012313
184	C	0.279216	0.642854	0.011643
185	C	0.308406	0.697926	0.012306
186	C	0.363023	0.719994	0.011676
187	H	0.240185	0.625938	0.00857
188	H	0.385154	0.759024	0.00866
189	H	0.373245	0.614055	0.008615
190	C	0.282938	0.727998	0.01246
191	N	0.231294	0.702652	0.33577
192	C	0.199971	0.72342	0.334031
193	C	0.221213	0.776948	0.008985
194	N	0.272466	0.802384	0.019713
195	C	0.304351	0.78193	0.021993
196	H	0.162334	0.699835	0.324807
197	C	0.352664	0.814271	0.040287
198	C	0.358527	0.813515	0.088193
199	H	0.341704	0.773736	0.100399
200	H	0.33943	0.832095	0.104875
201	H	0.399597	0.834163	0.09718
202	O	0.37804	0.856944	0.022752
203	C	0.271261	0.5548	0.012531
204	N	0.296534	0.528495	0.335603
205	C	0.275746	0.976405	0.333854
206	C	0.222282	0.944133	0.009088
207	N	0.19691	0.969953	0.020052
208	C	0.217424	0.522307	0.022409
209	H	0.299295	0.962337	0.324548
210	C	0.185285	0.53845	0.04101
211	C	0.18703	0.545488	0.088878
212	H	0.227024	0.568658	0.10053
213	H	0.168848	0.507964	0.105792
214	H	0.166432	0.565868	0.098154
215	O	0.1426	0.521046	0.023514
216	C	0.444451	0.716277	0.012633
217	N	0.470747	0.767951	0.336073
218	C	0.022836	0.799307	0.334401
219	C	0.055129	0.778046	0.009233
220	N	0.029328	0.726768	0.019872
221	C	0.476995	0.6949	0.022233
222	H	0.036861	0.836968	0.325263
223	C	0.460944	0.646299	0.040042
224	C	0.454081	0.640697	0.087987
225	H	0.430653	0.657119	0.099913
226	H	0.49164	0.660212	0.104852
227	H	0.43402	0.599672	0.097121
228	O	0.478793	0.62129	0.022805
229	C	0.110369	0.80581	0.341847
230	C	0.139813	0.860727	0.341927
231	C	0.194821	0.88889	0.341787
232	C	0.220297	0.859447	0.34172
233	C	0.193452	0.804432	0.341684
234	C	0.138535	0.778962	0.341774
235	H	0.25982	0.878581	0.3425
236	H	0.118147	0.739439	0.342613
237	H	0.120688	0.881123	0.342826
238	C	0.388912	0.690811	0.345688
239	C	0.356367	0.636204	0.344945
240	C	0.301308	0.61033	0.345648
241	C	0.279216	0.642854	0.344975
242	C	0.308406	0.697926	0.345638
243	C	0.363023	0.719994	0.345009
244	H	0.240185	0.625938	0.341904
245	H	0.385154	0.759024	0.341994
246	H	0.373245	0.614055	0.341947
247	C	0.282938	0.727998	0.345792
248	N	0.231294	0.702652	0.669104
249	C	0.199971	0.72342	0.667365
250	C	0.221213	0.776948	0.34232
251	N	0.272466	0.802384	0.353045
252	C	0.304351	0.78193	0.355327
253	H	0.162334	0.699835	0.65814
254	C	0.352664	0.814271	0.373621
255	C	0.358527	0.813515	0.421525
256	H	0.341704	0.773736	0.433732
257	H	0.33943	0.832095	0.43821
258	H	0.399597	0.834163	0.430514
259	O	0.37804	0.856944	0.356083
260	C	0.271261	0.5548	0.345865
261	N	0.296534	0.528495	0.668934
262	C	0.275746	0.976405	0.667185
263	C	0.222282	0.944133	0.342423
264	N	0.19691	0.969953	0.353385
265	C	0.217424	0.522307	0.355744
266	H	0.299295	0.962337	0.657883
267	C	0.185285	0.53845	0.374344
268	C	0.18703	0.545488	0.422211
269	H	0.227024	0.568658	0.433862
270	H	0.168848	0.507964	0.439126
271	H	0.166432	0.565868	0.431487
272	O	0.1426	0.521046	0.356846
273	C	0.444451	0.716277	0.345965
274	N	0.470747	0.767951	0.669407
275	C	0.022836	0.799307	0.667735
276	C	0.055129	0.778046	0.342567
277	N	0.029328	0.726768	0.353205
278	C	0.476995	0.6949	0.355567
279	H	0.036861	0.836968	0.658596
280	C	0.460944	0.646299	0.373375
281	C	0.454081	0.640697	0.421322
282	H	0.430653	0.657119	0.433246
283	H	0.49164	0.660212	0.438187
284	H	0.43402	0.599672	0.430454
285	O	0.478793	0.62129	0.35614
286	C	0.110369	0.80581	0.675181
287	C	0.139813	0.860727	0.675261
288	C	0.194821	0.88889	0.675118
289	C	0.220297	0.859447	0.675055
290	C	0.193452	0.804432	0.675018
291	C	0.138535	0.778962	0.675108
292	H	0.25982	0.878581	0.675834
293	H	0.118147	0.739439	0.675944
294	H	0.120688	0.881123	0.676161
295	C	0.388912	0.690811	0.679023
296	C	0.356367	0.636204	0.67828
297	C	0.301308	0.61033	0.678979
298	C	0.279216	0.642854	0.67831
299	C	0.308406	0.697926	0.678973
300	C	0.363023	0.719994	0.678343
301	H	0.240185	0.625938	0.675238
302	H	0.385154	0.759024	0.675328
303	H	0.373245	0.614055	0.675281
304	C	0.282938	0.727998	0.679126
305	N	0.231294	0.702652	0.002438
306	C	0.199971	0.72342	0.000698
307	C	0.221213	0.776948	0.675651
308	N	0.272466	0.802384	0.686379
309	C	0.304351	0.78193	0.688658
310	H	0.162334	0.699835	0.991474
311	C	0.352664	0.814271	0.706953
312	C	0.358527	0.813515	0.754859
313	H	0.341704	0.773736	0.767067
314	H	0.33943	0.832095	0.771541
315	H	0.399597	0.834163	0.763848
316	O	0.37804	0.856944	0.689418
317	C	0.271261	0.5548	0.679196
318	N	0.296534	0.528495	0.002268
319	C	0.275746	0.976405	0.00052
320	C	0.222282	0.944133	0.675754
321	N	0.19691	0.969953	0.686719
322	C	0.217424	0.522307	0.689075
323	H	0.299295	0.962337	0.991214
324	C	0.185285	0.53845	0.707676
325	C	0.18703	0.545488	0.755546
326	H	0.227024	0.568658	0.767197
327	H	0.168848	0.507964	0.772457
328	H	0.166432	0.565868	0.764821
329	O	0.1426	0.521046	0.690181
330	C	0.444451	0.716277	0.679299
331	N	0.470747	0.767951	0.002741
332	C	0.022836	0.799307	0.001067
333	C	0.055129	0.778046	0.675901
334	N	0.029328	0.726768	0.686539
335	C	0.476995	0.6949	0.688901
336	H	0.036861	0.836968	0.99193
337	C	0.460944	0.646299	0.706709
338	C	0.454081	0.640697	0.754653
339	H	0.430653	0.657119	0.76658
340	H	0.49164	0.660212	0.771518
341	H	0.43402	0.599672	0.763788
342	O	0.478793	0.62129	0.689471
343	C	0.610366	0.305816	0.008513
344	C	0.639809	0.360732	0.008613
345	C	0.694818	0.388895	0.008463
346	C	0.720295	0.359452	0.008377
347	C	0.693449	0.304437	0.008329
348	C	0.638533	0.278966	0.008423
349	H	0.759816	0.378586	0.009156
350	H	0.618144	0.239445	0.009249
351	H	0.620685	0.381128	0.009525
352	C	0.888907	0.190811	0.012337
353	C	0.856362	0.136203	0.011596
354	C	0.801302	0.11033	0.012279
355	C	0.779212	0.142858	0.011597
356	C	0.808403	0.197928	0.012265
357	C	0.863022	0.219995	0.011646
358	H	0.740183	0.125944	0.008515
359	H	0.885153	0.259024	0.00863
360	H	0.873238	0.114053	0.008608
361	C	0.782936	0.228002	0.012415
362	N	0.731292	0.202658	0.33573
363	C	0.699969	0.223425	0.333994
364	C	0.72121	0.276955	0.008951
365	N	0.772465	0.302388	0.019673
366	C	0.804353	0.281936	0.021947
367	H	0.662329	0.19984	0.324772
368	C	0.852666	0.314281	0.040234
369	C	0.858535	0.31354	0.08814
370	H	0.841713	0.273767	0.100357
371	H	0.839445	0.332128	0.104818
372	H	0.899609	0.334188	0.097124
373	O	0.878041	0.356947	0.022688
374	C	0.771255	0.054799	0.012492
375	N	0.796538	0.028496	0.335607
376	C	0.775738	0.476406	0.333841
377	C	0.72228	0.444135	0.009111
378	N	0.696922	0.469958	0.020122
379	C	0.717404	0.0223	0.022328
380	H	0.799271	0.462334	0.324499
381	C	0.685231	0.038436	0.040872
382	C	0.686867	0.045418	0.088742
383	H	0.726836	0.068587	0.100457
384	H	0.66866	0.007874	0.105627
385	H	0.66624	0.065778	0.097985
386	O	0.642584	0.021048	0.023304
387	C	0.944446	0.216278	0.012622
388	N	0.970746	0.267957	0.336073
389	C	0.52283	0.299312	0.334404
390	C	0.555127	0.278052	0.009232
391	N	0.529326	0.226773	0.019862
392	C	0.976994	0.194903	0.022219
393	H	0.53686	0.336974	0.325273
394	C	0.960944	0.146299	0.040022
395	C	0.954121	0.140703	0.087971
396	H	0.930697	0.157122	0.099918
397	H	0.991696	0.160227	0.104814
398	H	0.934074	0.099681	0.09711
399	O	0.978779	0.121289	0.022765
400	C	0.610366	0.305816	0.341847
401	C	0.639809	0.360732	0.341947
402	C	0.694818	0.388895	0.341797
403	C	0.720295	0.359452	0.34171
404	C	0.693449	0.304437	0.341664
405	C	0.638533	0.278966	0.341757
406	H	0.759816	0.378586	0.34249
407	H	0.618144	0.239445	0.342583
408	H	0.620685	0.381128	0.34286
409	C	0.888907	0.190811	0.345672
410	C	0.856362	0.136203	0.344929
411	C	0.801302	0.11033	0.345612
412	C	0.779212	0.142858	0.344932
413	C	0.808403	0.197928	0.345598
414	C	0.863022	0.219995	0.344979
415	H	0.740183	0.125944	0.34185
416	H	0.885153	0.259024	0.341964
417	H	0.873238	0.114053	0.34194
418	C	0.782936	0.228002	0.345748
419	N	0.731292	0.202658	0.669064
420	C	0.699969	0.223425	0.667325
421	C	0.72121	0.276955	0.342283
422	N	0.772465	0.302388	0.353008
423	C	0.804353	0.281936	0.35528
424	H	0.662329	0.19984	0.658106
425	C	0.852666	0.314281	0.373568
426	C	0.858535	0.31354	0.421475
427	H	0.841713	0.273767	0.433689
428	H	0.839445	0.332128	0.43815
429	H	0.899609	0.334188	0.430457
430	O	0.878041	0.356947	0.35602
431	C	0.771255	0.054799	0.345825
432	N	0.796538	0.028496	0.668938
433	C	0.775738	0.476406	0.667175
434	C	0.72228	0.444135	0.342443
435	N	0.696922	0.469958	0.353455
436	C	0.717404	0.0223	0.35566
437	H	0.799271	0.462334	0.657833
438	C	0.685231	0.038436	0.374205
439	C	0.686867	0.045418	0.422075
440	H	0.726836	0.068587	0.433789
441	H	0.66866	0.007874	0.43896
442	H	0.66624	0.065778	0.43132
443	O	0.642584	0.021048	0.356636
444	C	0.944446	0.216278	0.345955
445	N	0.970746	0.267957	0.669407
446	C	0.52283	0.299312	0.667738
447	C	0.555127	0.278052	0.342567
448	N	0.529326	0.226773	0.353195
449	C	0.976994	0.194903	0.355554
450	H	0.53686	0.336974	0.658606
451	C	0.960944	0.146299	0.373355
452	C	0.954121	0.140703	0.421305
453	H	0.930697	0.157122	0.433252
454	H	0.991696	0.160227	0.438147
455	H	0.934074	0.099681	0.430444
456	O	0.978779	0.121289	0.3561
457	C	0.610366	0.305816	0.675181
458	C	0.639809	0.360732	0.675278
459	C	0.694818	0.388895	0.675131
460	C	0.720295	0.359452	0.675045
461	C	0.693449	0.304437	0.674995
462	C	0.638533	0.278966	0.675091
463	H	0.759816	0.378586	0.675824
464	H	0.618144	0.239445	0.675914
465	H	0.620685	0.381128	0.676191
466	C	0.888907	0.190811	0.679003
467	C	0.856362	0.136203	0.678263
468	C	0.801302	0.11033	0.678946
469	C	0.779212	0.142858	0.678263
470	C	0.808403	0.197928	0.678933
471	C	0.863022	0.219995	0.678313
472	H	0.740183	0.125944	0.675181
473	H	0.885153	0.259024	0.675298
474	H	0.873238	0.114053	0.675275
475	C	0.782936	0.228002	0.679083
476	N	0.731292	0.202658	0.002396
477	C	0.699969	0.223425	0.00066
478	C	0.72121	0.276955	0.675618
479	N	0.772465	0.302388	0.686339
480	C	0.804353	0.281936	0.688615
481	H	0.662329	0.19984	0.991437
482	C	0.852666	0.314281	0.706903
483	C	0.858535	0.31354	0.754806
484	H	0.841713	0.273767	0.767023
485	H	0.839445	0.332128	0.771484
486	H	0.899609	0.334188	0.763792
487	O	0.878041	0.356947	0.689354
488	C	0.771255	0.054799	0.679159
489	N	0.796538	0.028496	0.002272
490	C	0.775738	0.476406	0.000509
491	C	0.72228	0.444135	0.675778
492	N	0.696922	0.469958	0.686789
493	C	0.717404	0.0223	0.688995
494	H	0.799271	0.462334	0.991168
495	C	0.685231	0.038436	0.707539
496	C	0.686867	0.045418	0.755409
497	H	0.726836	0.068587	0.767123
498	H	0.66866	0.007874	0.772294
499	H	0.66624	0.065778	0.764651
500	O	0.642584	0.021048	0.689971
501	C	0.944446	0.216278	0.679289
502	N	0.970746	0.267957	0.002739
503	C	0.52283	0.299312	0.001072
504	C	0.555127	0.278052	0.675898
505	N	0.529326	0.226773	0.686529
506	C	0.976994	0.194903	0.688885
507	H	0.53686	0.336974	0.99194
508	C	0.960944	0.146299	0.706689
509	C	0.954121	0.140703	0.754639
510	H	0.930697	0.157122	0.766584
511	H	0.991696	0.160227	0.771481
512	H	0.934074	0.099681	0.763778
513	O	0.978779	0.121289	0.689431
514	C	0.610369	0.80581	0.008513
515	C	0.639812	0.860727	0.008595
516	C	0.69482	0.88889	0.008452
517	C	0.720297	0.859447	0.008387
518	C	0.693451	0.804432	0.008351
519	C	0.638535	0.778962	0.008441
520	H	0.75982	0.878581	0.009167
521	H	0.618146	0.739439	0.009279
522	H	0.620687	0.881123	0.009494
523	C	0.88891	0.690811	0.012355
524	C	0.856365	0.636204	0.011613
525	C	0.801308	0.61033	0.012313
526	C	0.779217	0.642854	0.011643
527	C	0.808406	0.697926	0.012306
528	C	0.863021	0.719994	0.011676
529	H	0.740183	0.625938	0.00857
530	H	0.885154	0.759024	0.00866
531	H	0.873245	0.614055	0.008615
532	C	0.782938	0.727998	0.01246
533	N	0.731293	0.702652	0.33577
534	C	0.69997	0.72342	0.334031
535	C	0.721213	0.776948	0.008985
536	N	0.772466	0.802384	0.019713
537	C	0.80435	0.78193	0.021993
538	H	0.662334	0.699835	0.324807
539	C	0.852665	0.814271	0.040287
540	C	0.858526	0.813515	0.088193
541	H	0.841704	0.773736	0.100399
542	H	0.839431	0.832095	0.104875
543	H	0.899596	0.834163	0.09718
544	O	0.87804	0.856944	0.022752
545	C	0.771262	0.5548	0.012531
546	N	0.796534	0.528495	0.335603
547	C	0.775746	0.976405	0.333854
548	C	0.722282	0.944133	0.009088
549	N	0.69691	0.969953	0.020052
550	C	0.717425	0.522307	0.022409
551	H	0.799294	0.962337	0.324548
552	C	0.685285	0.53845	0.04101
553	C	0.68703	0.545488	0.088878
554	H	0.727023	0.568658	0.10053
555	H	0.668849	0.507964	0.105792
556	H	0.666433	0.565868	0.098154
557	O	0.6426	0.521046	0.023514
558	C	0.944449	0.716277	0.012633
559	N	0.970746	0.767951	0.336073
560	C	0.522834	0.799307	0.334401
561	C	0.555129	0.778046	0.009233
562	N	0.529327	0.726768	0.019872
563	C	0.976996	0.6949	0.022233
564	H	0.53686	0.836968	0.325263
565	C	0.960944	0.646299	0.040042
566	C	0.954081	0.640697	0.087987
567	H	0.930652	0.657119	0.099913
568	H	0.991642	0.660212	0.104852
569	H	0.934019	0.599672	0.097121
570	O	0.978794	0.62129	0.022805
571	C	0.610369	0.80581	0.341847
572	C	0.639812	0.860727	0.341927
573	C	0.69482	0.88889	0.341787
574	C	0.720297	0.859447	0.34172
575	C	0.693451	0.804432	0.341684
576	C	0.638535	0.778962	0.341774
577	H	0.75982	0.878581	0.3425
578	H	0.618146	0.739439	0.342613
579	H	0.620687	0.881123	0.342826
580	C	0.88891	0.690811	0.345688
581	C	0.856365	0.636204	0.344945
582	C	0.801308	0.61033	0.345648
583	C	0.779217	0.642854	0.344975
584	C	0.808406	0.697926	0.345638
585	C	0.863021	0.719994	0.345009
586	H	0.740183	0.625938	0.341904
587	H	0.885154	0.759024	0.341994
588	H	0.873245	0.614055	0.341947
589	C	0.782938	0.727998	0.345792
590	N	0.731293	0.702652	0.669104
591	C	0.69997	0.72342	0.667365
592	C	0.721213	0.776948	0.34232
593	N	0.772466	0.802384	0.353045
594	C	0.80435	0.78193	0.355327
595	H	0.662334	0.699835	0.65814
596	C	0.852665	0.814271	0.373621
597	C	0.858526	0.813515	0.421525
598	H	0.841704	0.773736	0.433732
599	H	0.839431	0.832095	0.43821
600	H	0.899596	0.834163	0.430514
601	O	0.87804	0.856944	0.356083
602	C	0.771262	0.5548	0.345865
603	N	0.796534	0.528495	0.668934
604	C	0.775746	0.976405	0.667185
605	C	0.722282	0.944133	0.342423
606	N	0.69691	0.969953	0.353385
607	C	0.717425	0.522307	0.355744
608	H	0.799294	0.962337	0.657883
609	C	0.685285	0.53845	0.374344
610	C	0.68703	0.545488	0.422211
611	H	0.727023	0.568658	0.433862
612	H	0.668849	0.507964	0.439126
613	H	0.666433	0.565868	0.431487
614	O	0.6426	0.521046	0.356846
615	C	0.944449	0.716277	0.345965
616	N	0.970746	0.767951	0.669407
617	C	0.522834	0.799307	0.667735
618	C	0.555129	0.778046	0.342567
619	N	0.529327	0.726768	0.353205
620	C	0.976996	0.6949	0.355567
621	H	0.53686	0.836968	0.658596
622	C	0.960944	0.646299	0.373375
623	C	0.954081	0.640697	0.421322
624	H	0.930652	0.657119	0.433246
625	H	0.991642	0.660212	0.438187
626	H	0.934019	0.599672	0.430454
627	O	0.978794	0.62129	0.35614
628	C	0.610369	0.80581	0.675181
629	C	0.639812	0.860727	0.675261
630	C	0.69482	0.88889	0.675118
631	C	0.720297	0.859447	0.675055
632	C	0.693451	0.804432	0.675018
633	C	0.638535	0.778962	0.675108
634	H	0.75982	0.878581	0.675834
635	H	0.618146	0.739439	0.675944
636	H	0.620687	0.881123	0.676161
637	C	0.88891	0.690811	0.679023
638	C	0.856365	0.636204	0.67828
639	C	0.801308	0.61033	0.678979
640	C	0.779217	0.642854	0.67831
641	C	0.808406	0.697926	0.678973
642	C	0.863021	0.719994	0.678343
643	H	0.740183	0.625938	0.675238
644	H	0.885154	0.759024	0.675328
645	H	0.873245	0.614055	0.675281
646	C	0.782938	0.727998	0.679126
647	N	0.731293	0.702652	0.002438
648	C	0.69997	0.72342	0.000698
649	C	0.721213	0.776948	0.675651
650	N	0.772466	0.802384	0.686379
651	C	0.80435	0.78193	0.688658
652	H	0.662334	0.699835	0.991474
653	C	0.852665	0.814271	0.706953
654	C	0.858526	0.813515	0.754859
655	H	0.841704	0.773736	0.767067
656	H	0.839431	0.832095	0.771541
657	H	0.899596	0.834163	0.763848
658	O	0.87804	0.856944	0.689418
659	C	0.771262	0.5548	0.679196
660	N	0.796534	0.528495	0.002268
661	C	0.775746	0.976405	0.00052
662	C	0.722282	0.944133	0.675754
663	N	0.69691	0.969953	0.686719
664	C	0.717425	0.522307	0.689075
665	H	0.799294	0.962337	0.991214
666	C	0.685285	0.53845	0.707676
667	C	0.68703	0.545488	0.755546
668	H	0.727023	0.568658	0.767197
669	H	0.668849	0.507964	0.772457
670	H	0.666433	0.565868	0.764821
671	O	0.6426	0.521046	0.690181
672	C	0.944449	0.716277	0.679299
673	N	0.970746	0.767951	0.002741
674	C	0.522834	0.799307	0.001067
675	C	0.555129	0.778046	0.675901
676	N	0.529327	0.726768	0.686539
677	C	0.976996	0.6949	0.688901
678	H	0.53686	0.836968	0.99193
679	C	0.960944	0.646299	0.706709
680	C	0.954081	0.640697	0.754653
681	H	0.930652	0.657119	0.76658
682	H	0.991642	0.660212	0.771518
683	H	0.934019	0.599672	0.763788
684	O	0.978794	0.62129	0.689471
