data_C360H144N72O144_2018-02-15_10:40:15
#******************************************
#
# CIF file created by Zeo++
# Zeo++ is an open source package to
# analyze microporous materials
#
#*******************************************

_cell_length_a		29.6739   
_cell_length_b		29.674   
_cell_length_c		29.9048   
_cell_angle_alpha		90   
_cell_angle_beta		90   
_cell_angle_gamma		120   

_symmetry_space_group_name_H-M		'P1'
_symmetry_Int_Tables_number		1
_symmetry_cell_setting		Monoclinic

loop_
_symmetry_equiv_pos_as_xyz
'+x,+y,+z'

loop_
_atom_site_label
_atom_site_type_symbol
_atom_site_fract_x
_atom_site_fract_y
_atom_site_fract_z
1	C	0.023294	0.298379	0.310965
2	O	0.020213	0.36912	0.28949
3	C	0.023294	0.298379	0.644298
4	O	0.020213	0.36912	0.622823
5	C	0.023294	0.298379	0.97763
6	O	0.020213	0.36912	0.956158
7	C	0.023294	0.798377	0.310965
8	O	0.020215	0.869121	0.289491
9	C	0.023294	0.798377	0.644298
10	O	0.020215	0.869121	0.622823
11	C	0.023294	0.798377	0.977633
12	O	0.020215	0.869121	0.956158
13	N	0.031851	0.232933	0.014292
14	C	0.038561	0.340849	0.282909
15	N	0.031851	0.232933	0.347623
16	C	0.038561	0.340849	0.616243
17	N	0.031851	0.232933	0.680958
18	C	0.038561	0.340849	0.949577
19	N	0.031852	0.732933	0.014292
20	C	0.038563	0.840851	0.28291
21	N	0.031852	0.732933	0.347623
22	C	0.038563	0.840851	0.616243
23	N	0.031852	0.732933	0.680958
24	C	0.038563	0.840851	0.949577
25	C	0.112018	0.306275	0.992126
26	C	0.140344	0.361155	0.991376
27	C	0.195094	0.390667	0.991657
28	C	0.222155	0.362677	0.993594
29	C	0.197172	0.307592	0.993777
30	C	0.141659	0.28062	0.995095
31	H	0.26152	0.383612	0.996901
32	H	0.122035	0.240831	0.995319
33	H	0.120627	0.380285	0.99782
34	C	0.390969	0.195036	0.006545
35	C	0.362718	0.140146	0.007329
36	C	0.307968	0.110547	0.006893
37	C	0.280839	0.138467	0.004896
38	C	0.305738	0.193547	0.004705
39	C	0.361253	0.220602	0.003462
40	H	0.241491	0.117493	0.001462
41	H	0.380822	0.260391	0.003235
42	H	0.382517	0.121068	0.001034
43	C	0.226358	0.281039	0.327972
44	N	0.202729	0.232123	0.011984
45	C	0.22368	0.200736	0.017122
46	C	0.27648	0.220031	0.003863
47	N	0.300081	0.268928	0.31982
48	C	0.279144	0.300315	0.314726
49	C	0.309074	0.345099	0.29003
50	C	0.193914	0.156047	0.041585
51	O	0.293946	0.346128	0.252238
52	O	0.356531	0.372977	0.295564
53	H	0.372977	0.374883	0.320828
54	O	0.147433	0.129215	0.033012
55	O	0.209677	0.154192	0.079432
56	H	0.192076	0.128704	0.098789
57	C	0.221664	0.445946	0.326664
58	N	0.269334	0.470096	0.01296
59	C	0.300394	0.021971	0.019432
60	C	0.281448	0.05526	0.005219
61	N	0.233789	0.031107	0.31889
62	C	0.202759	0.479244	0.312425
63	C	0.159187	0.464687	0.286011
64	C	0.343528	0.03647	0.045961
65	O	0.160674	0.449935	0.248184
66	O	0.130837	0.483828	0.290838
67	H	0.127337	0.497187	0.31621
68	O	0.371229	0.017559	0.038344
69	O	0.341725	0.05099	0.084334
70	H	0.36511	0.057002	0.105358
71	C	0.056494	0.279654	0.326498
72	C	0.479719	0.203062	0.021049
73	C	0.446499	0.221754	0.00554
74	N	0.471147	0.268475	0.317733
75	C	0.464568	0.160865	0.049367
76	O	0.053369	0.341191	0.244229
77	H	0.06405	0.320129	0.233884
78	O	0.482438	0.132144	0.043059
79	O	0.45069	0.161463	0.088244
80	H	0.440258	0.182764	0.098504
81	C	0.112018	0.306275	0.325461
82	C	0.140344	0.361155	0.324711
83	C	0.195094	0.390667	0.324991
84	C	0.222155	0.362677	0.326926
85	C	0.197172	0.307592	0.327112
86	C	0.141659	0.28062	0.32843
87	H	0.26152	0.383612	0.330235
88	H	0.122035	0.240831	0.328652
89	H	0.120627	0.380285	0.331153
90	C	0.390969	0.195036	0.339879
91	C	0.362718	0.140146	0.340661
92	C	0.307968	0.110547	0.340227
93	C	0.280839	0.138467	0.33823
94	C	0.305738	0.193547	0.33804
95	C	0.361253	0.220602	0.336796
96	H	0.241491	0.117493	0.334796
97	H	0.380822	0.260391	0.336568
98	H	0.382517	0.121068	0.334367
99	C	0.226358	0.281039	0.661306
100	N	0.202729	0.232123	0.345316
101	C	0.22368	0.200736	0.350456
102	C	0.27648	0.220031	0.337197
103	N	0.300081	0.268928	0.653153
104	C	0.279144	0.300315	0.64806
105	C	0.309074	0.345099	0.623362
106	C	0.193914	0.156047	0.37492
107	O	0.293946	0.346128	0.585572
108	O	0.356531	0.372977	0.628896
109	H	0.372977	0.374883	0.65416
110	O	0.147433	0.129215	0.366346
111	O	0.209677	0.154192	0.412767
112	H	0.192076	0.128704	0.432121
113	C	0.221664	0.445946	0.659998
114	N	0.269334	0.470096	0.346292
115	C	0.300394	0.021971	0.352766
116	C	0.281448	0.05526	0.338551
117	N	0.233789	0.031107	0.652223
118	C	0.202759	0.479244	0.64576
119	C	0.159187	0.464687	0.619346
120	C	0.343528	0.03647	0.379294
121	O	0.160674	0.449935	0.581519
122	O	0.130837	0.483828	0.624171
123	H	0.127337	0.497187	0.649545
124	O	0.371229	0.017559	0.371676
125	O	0.341725	0.05099	0.417669
126	H	0.36511	0.057002	0.438692
127	C	0.056494	0.279654	0.659831
128	C	0.479719	0.203062	0.354381
129	C	0.446499	0.221754	0.338872
130	N	0.471147	0.268475	0.651066
131	C	0.464568	0.160865	0.382701
132	O	0.053369	0.341191	0.577563
133	H	0.06405	0.320129	0.567217
134	O	0.482438	0.132144	0.376391
135	O	0.45069	0.161463	0.421578
136	H	0.440258	0.182764	0.431837
137	C	0.112018	0.306275	0.658794
138	C	0.140344	0.361155	0.658045
139	C	0.195094	0.390667	0.658323
140	C	0.222155	0.362677	0.660259
141	C	0.197172	0.307592	0.660446
142	C	0.141659	0.28062	0.661764
143	H	0.26152	0.383612	0.663569
144	H	0.122035	0.240831	0.661984
145	H	0.120627	0.380285	0.664486
146	C	0.390969	0.195036	0.673213
147	C	0.362718	0.140146	0.673996
148	C	0.307968	0.110547	0.673558
149	C	0.280839	0.138467	0.671561
150	C	0.305738	0.193547	0.671371
151	C	0.361253	0.220602	0.670127
152	H	0.241491	0.117493	0.668127
153	H	0.380822	0.260391	0.6699
154	H	0.382517	0.121068	0.667699
155	C	0.226358	0.281039	0.99464
156	N	0.202729	0.232123	0.678651
157	C	0.22368	0.200736	0.683787
158	C	0.27648	0.220031	0.670528
159	N	0.300081	0.268928	0.986488
160	C	0.279144	0.300315	0.981391
161	C	0.309074	0.345099	0.956696
162	C	0.193914	0.156047	0.708251
163	O	0.293946	0.346128	0.918903
164	O	0.356531	0.372977	0.962231
165	H	0.372977	0.374883	0.987494
166	O	0.147433	0.129215	0.699677
167	O	0.209677	0.154192	0.746098
168	H	0.192076	0.128704	0.765456
169	C	0.221664	0.445946	0.993329
170	N	0.269334	0.470096	0.679627
171	C	0.300394	0.021971	0.686098
172	C	0.281448	0.05526	0.671886
173	N	0.233789	0.031107	0.985555
174	C	0.202759	0.479244	0.979091
175	C	0.159187	0.464687	0.952677
176	C	0.343528	0.03647	0.712628
177	O	0.160674	0.449935	0.91485
178	O	0.130837	0.483828	0.957506
179	H	0.127337	0.497187	0.982876
180	O	0.371229	0.017559	0.705011
181	O	0.341725	0.05099	0.751
182	H	0.36511	0.057002	0.772024
183	C	0.056494	0.279654	0.993166
184	C	0.479719	0.203062	0.687716
185	C	0.446499	0.221754	0.672207
186	N	0.471147	0.268475	0.984401
187	C	0.464568	0.160865	0.716033
188	O	0.053369	0.341191	0.910894
189	H	0.06405	0.320129	0.900552
190	O	0.482438	0.132144	0.709726
191	O	0.45069	0.161463	0.754909
192	H	0.440258	0.182764	0.765169
193	C	0.112019	0.806276	0.992129
194	C	0.140345	0.861155	0.991376
195	C	0.195096	0.890667	0.991657
196	C	0.222155	0.862677	0.993594
197	C	0.197172	0.807592	0.993777
198	C	0.14166	0.780621	0.995095
199	H	0.26152	0.883612	0.996904
200	H	0.122034	0.740829	0.995319
201	H	0.120627	0.880285	0.99782
202	C	0.39097	0.695036	0.006545
203	C	0.362718	0.640145	0.007329
204	C	0.307968	0.610544	0.006892
205	C	0.28084	0.638468	0.004896
206	C	0.305738	0.693546	0.004705
207	C	0.361254	0.720602	0.003462
208	H	0.241492	0.617494	0.001458
209	H	0.380823	0.76039	0.003235
210	H	0.382518	0.621066	0.00103
211	C	0.226358	0.781038	0.327973
212	N	0.20273	0.732124	0.011983
213	C	0.223681	0.700737	0.017121
214	C	0.27648	0.72003	0.003863
215	N	0.300082	0.768928	0.319821
216	C	0.279145	0.800315	0.314726
217	C	0.309076	0.8451	0.290031
218	C	0.193913	0.656045	0.041584
219	O	0.293947	0.846127	0.252239
220	O	0.356532	0.872977	0.295565
221	H	0.372978	0.874884	0.32083
222	O	0.147434	0.629215	0.03301
223	O	0.209676	0.654189	0.079431
224	H	0.192075	0.628701	0.098788
225	C	0.221663	0.945943	0.326665
226	N	0.269333	0.970092	0.012961
227	C	0.300395	0.521971	0.01943
228	C	0.28145	0.555261	0.005218
229	N	0.23379	0.531107	0.318889
230	C	0.20276	0.979245	0.312427
231	C	0.159188	0.964687	0.286013
232	C	0.343528	0.53647	0.04596
233	O	0.160675	0.949935	0.248185
234	O	0.130838	0.983829	0.29084
235	H	0.12734	0.997187	0.316211
236	O	0.371229	0.517558	0.038343
237	O	0.341725	0.550988	0.084333
238	H	0.36511	0.557	0.105357
239	C	0.056493	0.779652	0.326498
240	C	0.479717	0.70306	0.021049
241	C	0.446499	0.721754	0.00554
242	N	0.471147	0.768473	0.317733
243	C	0.464568	0.660863	0.049367
244	O	0.053371	0.841189	0.24423
245	H	0.064052	0.820129	0.233885
246	O	0.482438	0.632145	0.043058
247	O	0.450689	0.661462	0.088244
248	H	0.440259	0.682763	0.098503
249	C	0.112019	0.806276	0.325461
250	C	0.140345	0.861155	0.324711
251	C	0.195096	0.890667	0.324992
252	C	0.222155	0.862677	0.326927
253	C	0.197172	0.807592	0.327113
254	C	0.14166	0.780621	0.32843
255	H	0.26152	0.883612	0.330236
256	H	0.122034	0.740829	0.328652
257	H	0.120627	0.880285	0.331154
258	C	0.39097	0.695036	0.339879
259	C	0.362718	0.640145	0.340661
260	C	0.307968	0.610544	0.340223
261	C	0.28084	0.638468	0.33823
262	C	0.305738	0.693546	0.33804
263	C	0.361254	0.720602	0.336796
264	H	0.241492	0.617494	0.334793
265	H	0.380823	0.76039	0.336568
266	H	0.382518	0.621066	0.334366
267	C	0.226358	0.781038	0.661306
268	N	0.20273	0.732124	0.345316
269	C	0.223681	0.700737	0.350456
270	C	0.27648	0.72003	0.337197
271	N	0.300082	0.768928	0.653153
272	C	0.279145	0.800315	0.64806
273	C	0.309076	0.8451	0.623365
274	C	0.193913	0.656045	0.374917
275	O	0.293947	0.846127	0.585572
276	O	0.356532	0.872977	0.628899
277	H	0.372978	0.874884	0.654163
278	O	0.147434	0.629215	0.366343
279	O	0.209676	0.654189	0.412763
280	H	0.192075	0.628701	0.432121
281	C	0.221663	0.945943	0.659998
282	N	0.269333	0.970092	0.346296
283	C	0.300395	0.521971	0.352763
284	C	0.28145	0.555261	0.338551
285	N	0.23379	0.531107	0.652223
286	C	0.20276	0.979245	0.64576
287	C	0.159188	0.964687	0.619346
288	C	0.343528	0.53647	0.379294
289	O	0.160675	0.949935	0.581519
290	O	0.130838	0.983829	0.624174
291	H	0.12734	0.997187	0.649545
292	O	0.371229	0.517558	0.371676
293	O	0.341725	0.550988	0.417666
294	H	0.36511	0.557	0.438689
295	C	0.056493	0.779652	0.659831
296	C	0.479717	0.70306	0.354381
297	C	0.446499	0.721754	0.338872
298	N	0.471147	0.768473	0.651066
299	C	0.464568	0.660863	0.382701
300	O	0.053371	0.841189	0.577563
301	H	0.064052	0.820129	0.567217
302	O	0.482438	0.632145	0.376391
303	O	0.450689	0.661462	0.421578
304	H	0.440259	0.682763	0.431837
305	C	0.112019	0.806276	0.658794
306	C	0.140345	0.861155	0.658045
307	C	0.195096	0.890667	0.658326
308	C	0.222155	0.862677	0.660259
309	C	0.197172	0.807592	0.660446
310	C	0.14166	0.780621	0.661764
311	H	0.26152	0.883612	0.663569
312	H	0.122034	0.740829	0.661984
313	H	0.120627	0.880285	0.664486
314	C	0.39097	0.695036	0.67321
315	C	0.362718	0.640145	0.673996
316	C	0.307968	0.610544	0.673558
317	C	0.28084	0.638468	0.671561
318	C	0.305738	0.693546	0.671371
319	C	0.361254	0.720602	0.670127
320	H	0.241492	0.617494	0.668127
321	H	0.380823	0.76039	0.6699
322	H	0.382518	0.621066	0.667699
323	C	0.226358	0.781038	0.99464
324	N	0.20273	0.732124	0.678651
325	C	0.223681	0.700737	0.683787
326	C	0.27648	0.72003	0.670528
327	N	0.300082	0.768928	0.986488
328	C	0.279145	0.800315	0.981391
329	C	0.309076	0.8451	0.956696
330	C	0.193913	0.656045	0.708251
331	O	0.293947	0.846127	0.918906
332	O	0.356532	0.872977	0.962231
333	H	0.372978	0.874884	0.987498
334	O	0.147434	0.629215	0.699677
335	O	0.209676	0.654189	0.746098
336	H	0.192075	0.628701	0.765453
337	C	0.221663	0.945943	0.993333
338	N	0.269333	0.970092	0.679627
339	C	0.300395	0.521971	0.686098
340	C	0.28145	0.555261	0.671882
341	N	0.23379	0.531107	0.985555
342	C	0.20276	0.979245	0.979094
343	C	0.159188	0.964687	0.95268
344	C	0.343528	0.53647	0.712625
345	O	0.160675	0.949935	0.91485
346	O	0.130838	0.983829	0.957506
347	H	0.12734	0.997187	0.982876
348	O	0.371229	0.517558	0.705011
349	O	0.341725	0.550988	0.751
350	H	0.36511	0.557	0.772024
351	C	0.056493	0.779652	0.993166
352	C	0.479717	0.70306	0.687716
353	C	0.446499	0.721754	0.672207
354	N	0.471147	0.768473	0.984401
355	C	0.464568	0.660863	0.716033
356	O	0.053371	0.841189	0.910898
357	H	0.064052	0.820129	0.900552
358	O	0.482438	0.632145	0.709726
359	O	0.450689	0.661462	0.754909
360	H	0.440259	0.682763	0.765169
361	C	0.61202	0.306275	0.992126
362	C	0.640346	0.361155	0.991376
363	C	0.695093	0.390667	0.991657
364	C	0.722155	0.362677	0.993594
365	C	0.697173	0.307592	0.993777
366	C	0.64166	0.28062	0.995095
367	H	0.76152	0.383612	0.996901
368	H	0.622035	0.240831	0.995319
369	H	0.620626	0.380285	0.99782
370	C	0.89097	0.195036	0.006545
371	C	0.862716	0.140146	0.007329
372	C	0.807969	0.110547	0.006893
373	C	0.780839	0.138467	0.004896
374	C	0.805737	0.193547	0.004705
375	C	0.861254	0.220602	0.003462
376	H	0.741491	0.117493	0.001462
377	H	0.880822	0.260391	0.003235
378	H	0.882519	0.121068	0.001034
379	C	0.726358	0.281039	0.327972
380	N	0.702729	0.232123	0.011984
381	C	0.723681	0.200736	0.017122
382	C	0.77648	0.220031	0.003863
383	N	0.80008	0.268928	0.31982
384	C	0.779145	0.300315	0.314726
385	C	0.809076	0.345099	0.29003
386	C	0.693915	0.156047	0.041585
387	O	0.793947	0.346128	0.252238
388	O	0.856532	0.372977	0.295564
389	H	0.872977	0.374883	0.320828
390	O	0.647433	0.129215	0.033012
391	O	0.709676	0.154192	0.079432
392	H	0.692075	0.128704	0.098789
393	C	0.721665	0.445946	0.326664
394	N	0.769333	0.470096	0.01296
395	C	0.800393	0.021971	0.019432
396	C	0.781447	0.05526	0.005219
397	N	0.733791	0.031107	0.31889
398	C	0.702761	0.479244	0.312425
399	C	0.659187	0.464687	0.286011
400	C	0.843529	0.03647	0.045961
401	O	0.660674	0.449935	0.248184
402	O	0.630836	0.483828	0.290838
403	H	0.627338	0.497187	0.31621
404	O	0.871228	0.017559	0.038344
405	O	0.841724	0.05099	0.084334
406	H	0.865112	0.057002	0.105358
407	C	0.556493	0.279654	0.326498
408	N	0.531852	0.232933	0.014292
409	C	0.979717	0.203062	0.021049
410	C	0.946497	0.221754	0.00554
411	N	0.971148	0.268475	0.317733
412	C	0.523293	0.298379	0.310965
413	C	0.53856	0.340849	0.282909
414	C	0.96457	0.160865	0.049367
415	O	0.520213	0.36912	0.28949
416	O	0.55337	0.341191	0.244229
417	H	0.56405	0.320129	0.233884
418	O	0.982436	0.132144	0.043059
419	O	0.950688	0.161463	0.088244
420	H	0.940259	0.182764	0.098504
421	C	0.61202	0.306275	0.325461
422	C	0.640346	0.361155	0.324711
423	C	0.695093	0.390667	0.324991
424	C	0.722155	0.362677	0.326926
425	C	0.697173	0.307592	0.327112
426	C	0.64166	0.28062	0.32843
427	H	0.76152	0.383612	0.330235
428	H	0.622035	0.240831	0.328652
429	H	0.620626	0.380285	0.331153
430	C	0.89097	0.195036	0.339879
431	C	0.862716	0.140146	0.340661
432	C	0.807969	0.110547	0.340227
433	C	0.780839	0.138467	0.33823
434	C	0.805737	0.193547	0.33804
435	C	0.861254	0.220602	0.336796
436	H	0.741491	0.117493	0.334796
437	H	0.880822	0.260391	0.336568
438	H	0.882519	0.121068	0.334367
439	C	0.726358	0.281039	0.661306
440	N	0.702729	0.232123	0.345316
441	C	0.723681	0.200736	0.350456
442	C	0.77648	0.220031	0.337197
443	N	0.80008	0.268928	0.653153
444	C	0.779145	0.300315	0.64806
445	C	0.809076	0.345099	0.623362
446	C	0.693915	0.156047	0.37492
447	O	0.793947	0.346128	0.585572
448	O	0.856532	0.372977	0.628896
449	H	0.872977	0.374883	0.65416
450	O	0.647433	0.129215	0.366346
451	O	0.709676	0.154192	0.412767
452	H	0.692075	0.128704	0.432121
453	C	0.721665	0.445946	0.659998
454	N	0.769333	0.470096	0.346292
455	C	0.800393	0.021971	0.352766
456	C	0.781447	0.05526	0.338551
457	N	0.733791	0.031107	0.652223
458	C	0.702761	0.479244	0.64576
459	C	0.659187	0.464687	0.619346
460	C	0.843529	0.03647	0.379294
461	O	0.660674	0.449935	0.581519
462	O	0.630836	0.483828	0.624171
463	H	0.627338	0.497187	0.649545
464	O	0.871228	0.017559	0.371676
465	O	0.841724	0.05099	0.417669
466	H	0.865112	0.057002	0.438692
467	C	0.556493	0.279654	0.659831
468	N	0.531852	0.232933	0.347623
469	C	0.979717	0.203062	0.354381
470	C	0.946497	0.221754	0.338872
471	N	0.971148	0.268475	0.651066
472	C	0.523293	0.298379	0.644298
473	C	0.53856	0.340849	0.616243
474	C	0.96457	0.160865	0.382701
475	O	0.520213	0.36912	0.622823
476	O	0.55337	0.341191	0.577563
477	H	0.56405	0.320129	0.567217
478	O	0.982436	0.132144	0.376391
479	O	0.950688	0.161463	0.421578
480	H	0.940259	0.182764	0.431837
481	C	0.61202	0.306275	0.658794
482	C	0.640346	0.361155	0.658045
483	C	0.695093	0.390667	0.658323
484	C	0.722155	0.362677	0.660259
485	C	0.697173	0.307592	0.660446
486	C	0.64166	0.28062	0.661764
487	H	0.76152	0.383612	0.663569
488	H	0.622035	0.240831	0.661984
489	H	0.620626	0.380285	0.664486
490	C	0.89097	0.195036	0.673213
491	C	0.862716	0.140146	0.673996
492	C	0.807969	0.110547	0.673558
493	C	0.780839	0.138467	0.671561
494	C	0.805737	0.193547	0.671371
495	C	0.861254	0.220602	0.670127
496	H	0.741491	0.117493	0.668127
497	H	0.880822	0.260391	0.6699
498	H	0.882519	0.121068	0.667699
499	C	0.726358	0.281039	0.99464
500	N	0.702729	0.232123	0.678651
501	C	0.723681	0.200736	0.683787
502	C	0.77648	0.220031	0.670528
503	N	0.80008	0.268928	0.986488
504	C	0.779145	0.300315	0.981391
505	C	0.809076	0.345099	0.956696
506	C	0.693915	0.156047	0.708251
507	O	0.793947	0.346128	0.918903
508	O	0.856532	0.372977	0.962231
509	H	0.872977	0.374883	0.987494
510	O	0.647433	0.129215	0.699677
511	O	0.709676	0.154192	0.746098
512	H	0.692075	0.128704	0.765456
513	C	0.721665	0.445946	0.993329
514	N	0.769333	0.470096	0.679627
515	C	0.800393	0.021971	0.686098
516	C	0.781447	0.05526	0.671886
517	N	0.733791	0.031107	0.985555
518	C	0.702761	0.479244	0.979091
519	C	0.659187	0.464687	0.952677
520	C	0.843529	0.03647	0.712628
521	O	0.660674	0.449935	0.91485
522	O	0.630836	0.483828	0.957506
523	H	0.627338	0.497187	0.982876
524	O	0.871228	0.017559	0.705011
525	O	0.841724	0.05099	0.751
526	H	0.865112	0.057002	0.772024
527	C	0.556493	0.279654	0.993166
528	N	0.531852	0.232933	0.680958
529	C	0.979717	0.203062	0.687716
530	C	0.946497	0.221754	0.672207
531	N	0.971148	0.268475	0.984401
532	C	0.523293	0.298379	0.97763
533	C	0.53856	0.340849	0.949577
534	C	0.96457	0.160865	0.716033
535	O	0.520213	0.36912	0.956158
536	O	0.55337	0.341191	0.910894
537	H	0.56405	0.320129	0.900552
538	O	0.982436	0.132144	0.709726
539	O	0.950688	0.161463	0.754909
540	H	0.940259	0.182764	0.765169
541	C	0.612019	0.806276	0.992129
542	C	0.640345	0.861155	0.991376
543	C	0.695096	0.890667	0.991657
544	C	0.722155	0.862677	0.993594
545	C	0.697172	0.807592	0.993777
546	C	0.64166	0.780621	0.995095
547	H	0.76152	0.883612	0.996904
548	H	0.622034	0.740829	0.995319
549	H	0.620627	0.880285	0.99782
550	C	0.89097	0.695036	0.006545
551	C	0.862719	0.640145	0.007329
552	C	0.807967	0.610544	0.006892
553	C	0.780839	0.638468	0.004896
554	C	0.805736	0.693546	0.004705
555	C	0.861254	0.720602	0.003462
556	H	0.741492	0.617494	0.001458
557	H	0.880822	0.76039	0.003235
558	H	0.882518	0.621066	0.00103
559	C	0.726358	0.781038	0.327973
560	N	0.70273	0.732124	0.011983
561	C	0.723681	0.700737	0.017121
562	C	0.77648	0.72003	0.003863
563	N	0.800083	0.768928	0.319821
564	C	0.779145	0.800315	0.314726
565	C	0.809076	0.8451	0.290031
566	C	0.693914	0.656045	0.041584
567	O	0.793947	0.846127	0.252239
568	O	0.856533	0.872977	0.295565
569	H	0.872978	0.874884	0.32083
570	O	0.647434	0.629215	0.03301
571	O	0.709674	0.654189	0.079431
572	H	0.692074	0.628701	0.098788
573	C	0.721663	0.945943	0.326665
574	N	0.769333	0.970092	0.012961
575	C	0.800396	0.521971	0.01943
576	C	0.781451	0.555261	0.005218
577	N	0.733791	0.531107	0.318889
578	C	0.70276	0.979245	0.312427
579	C	0.659188	0.964687	0.286013
580	C	0.843529	0.53647	0.04596
581	O	0.660675	0.949935	0.248185
582	O	0.630838	0.983829	0.29084
583	H	0.627338	0.997187	0.316211
584	O	0.871227	0.517558	0.038343
585	O	0.841727	0.550988	0.084333
586	H	0.865111	0.557	0.105357
587	C	0.556493	0.779652	0.326498
588	N	0.531852	0.732933	0.014292
589	C	0.979716	0.70306	0.021049
590	C	0.9465	0.721754	0.00554
591	N	0.971147	0.768473	0.317733
592	C	0.523294	0.798377	0.310965
593	C	0.538563	0.840851	0.28291
594	C	0.964569	0.660863	0.049367
595	O	0.520214	0.869121	0.289491
596	O	0.553369	0.841189	0.24423
597	H	0.564051	0.820129	0.233885
598	O	0.982437	0.632145	0.043058
599	O	0.950688	0.661462	0.088244
600	H	0.940259	0.682763	0.098503
601	C	0.612019	0.806276	0.325461
602	C	0.640345	0.861155	0.324711
603	C	0.695096	0.890667	0.324992
604	C	0.722155	0.862677	0.326927
605	C	0.697172	0.807592	0.327113
606	C	0.64166	0.780621	0.32843
607	H	0.76152	0.883612	0.330236
608	H	0.622034	0.740829	0.328652
609	H	0.620627	0.880285	0.331154
610	C	0.89097	0.695036	0.339879
611	C	0.862719	0.640145	0.340661
612	C	0.807967	0.610544	0.340223
613	C	0.780839	0.638468	0.33823
614	C	0.805736	0.693546	0.33804
615	C	0.861254	0.720602	0.336796
616	H	0.741492	0.617494	0.334793
617	H	0.880822	0.76039	0.336568
618	H	0.882518	0.621066	0.334366
619	C	0.726358	0.781038	0.661306
620	N	0.70273	0.732124	0.345316
621	C	0.723681	0.700737	0.350456
622	C	0.77648	0.72003	0.337197
623	N	0.800083	0.768928	0.653153
624	C	0.779145	0.800315	0.64806
625	C	0.809076	0.8451	0.623365
626	C	0.693914	0.656045	0.374917
627	O	0.793947	0.846127	0.585572
628	O	0.856533	0.872977	0.628899
629	H	0.872978	0.874884	0.654163
630	O	0.647434	0.629215	0.366343
631	O	0.709674	0.654189	0.412763
632	H	0.692074	0.628701	0.432121
633	C	0.721663	0.945943	0.659998
634	N	0.769333	0.970092	0.346296
635	C	0.800396	0.521971	0.352763
636	C	0.781451	0.555261	0.338551
637	N	0.733791	0.531107	0.652223
638	C	0.70276	0.979245	0.64576
639	C	0.659188	0.964687	0.619346
640	C	0.843529	0.53647	0.379294
641	O	0.660675	0.949935	0.581519
642	O	0.630838	0.983829	0.624174
643	H	0.627338	0.997187	0.649545
644	O	0.871227	0.517558	0.371676
645	O	0.841727	0.550988	0.417666
646	H	0.865111	0.557	0.438689
647	C	0.556493	0.779652	0.659831
648	N	0.531852	0.732933	0.347623
649	C	0.979716	0.70306	0.354381
650	C	0.9465	0.721754	0.338872
651	N	0.971147	0.768473	0.651066
652	C	0.523294	0.798377	0.644298
653	C	0.538563	0.840851	0.616243
654	C	0.964569	0.660863	0.382701
655	O	0.520214	0.869121	0.622823
656	O	0.553369	0.841189	0.577563
657	H	0.564051	0.820129	0.567217
658	O	0.982437	0.632145	0.376391
659	O	0.950688	0.661462	0.421578
660	H	0.940259	0.682763	0.431837
661	C	0.612019	0.806276	0.658794
662	C	0.640345	0.861155	0.658045
663	C	0.695096	0.890667	0.658326
664	C	0.722155	0.862677	0.660259
665	C	0.697172	0.807592	0.660446
666	C	0.64166	0.780621	0.661764
667	H	0.76152	0.883612	0.663569
668	H	0.622034	0.740829	0.661984
669	H	0.620627	0.880285	0.664486
670	C	0.89097	0.695036	0.67321
671	C	0.862719	0.640145	0.673996
672	C	0.807967	0.610544	0.673558
673	C	0.780839	0.638468	0.671561
674	C	0.805736	0.693546	0.671371
675	C	0.861254	0.720602	0.670127
676	H	0.741492	0.617494	0.668127
677	H	0.880822	0.76039	0.6699
678	H	0.882518	0.621066	0.667699
679	C	0.726358	0.781038	0.99464
680	N	0.70273	0.732124	0.678651
681	C	0.723681	0.700737	0.683787
682	C	0.77648	0.72003	0.670528
683	N	0.800083	0.768928	0.986488
684	C	0.779145	0.800315	0.981391
685	C	0.809076	0.8451	0.956696
686	C	0.693914	0.656045	0.708251
687	O	0.793947	0.846127	0.918906
688	O	0.856533	0.872977	0.962231
689	H	0.872978	0.874884	0.987498
690	O	0.647434	0.629215	0.699677
691	O	0.709674	0.654189	0.746098
692	H	0.692074	0.628701	0.765453
693	C	0.721663	0.945943	0.993333
694	N	0.769333	0.970092	0.679627
695	C	0.800396	0.521971	0.686098
696	C	0.781451	0.555261	0.671882
697	N	0.733791	0.531107	0.985555
698	C	0.70276	0.979245	0.979094
699	C	0.659188	0.964687	0.95268
700	C	0.843529	0.53647	0.712625
701	O	0.660675	0.949935	0.91485
702	O	0.630838	0.983829	0.957506
703	H	0.627338	0.997187	0.982876
704	O	0.871227	0.517558	0.705011
705	O	0.841727	0.550988	0.751
706	H	0.865111	0.557	0.772024
707	C	0.556493	0.779652	0.993166
708	N	0.531852	0.732933	0.680958
709	C	0.979716	0.70306	0.687716
710	C	0.9465	0.721754	0.672207
711	N	0.971147	0.768473	0.984401
712	C	0.523294	0.798377	0.977633
713	C	0.538563	0.840851	0.949577
714	C	0.964569	0.660863	0.716033
715	O	0.520214	0.869121	0.956158
716	O	0.553369	0.841189	0.910898
717	H	0.564051	0.820129	0.900552
718	O	0.982437	0.632145	0.709726
719	O	0.950688	0.661462	0.754909
720	H	0.940259	0.682763	0.765169
