data_C189H99N27O9_2018-02-15_10:42:17
#******************************************
#
# CIF file created by Zeo++
# Zeo++ is an open source package to
# analyze microporous materials
#
#*******************************************

_cell_length_a		29.4858   
_cell_length_b		29.4858   
_cell_length_c		29.8834   
_cell_angle_alpha		90   
_cell_angle_beta		90   
_cell_angle_gamma		120   

_symmetry_space_group_name_H-M		'P1'
_symmetry_Int_Tables_number		1
_symmetry_cell_setting		Monoclinic

loop_
_symmetry_equiv_pos_as_xyz
'+x,+y,+z'

loop_
_atom_site_label
_atom_site_type_symbol
_atom_site_fract_x
_atom_site_fract_y
_atom_site_fract_z
1	C	0.030054	0.515516	0.041449
2	C	0.030518	0.515747	0.293895
3	C	0.030054	0.515516	0.374783
4	C	0.030518	0.515747	0.627227
5	C	0.030054	0.515516	0.708115
6	C	0.030518	0.515747	0.960563
7	H	0.049935	0.525455	0.26393
8	N	0.045799	0.523387	0.083911
9	H	0.049935	0.525455	0.597264
10	N	0.045799	0.523387	0.417245
11	H	0.049935	0.525455	0.930596
12	N	0.045799	0.523387	0.750577
13	C	0.058886	0.529931	0.33456
14	C	0.058886	0.529931	0.667892
15	C	0.058886	0.529931	0.001228
16	C	0.363308	0.722714	0.002103
17	N	0.388677	0.694828	0.002095
18	C	0.363307	0.641568	0.002103
19	N	0.31005	0.6162	0.002095
20	C	0.282162	0.641568	0.002104
21	N	0.310051	0.694828	0.002095
22	C	0.391284	0.613591	0.002026
23	C	0.446832	0.640292	0.001955
24	C	0.474471	0.612808	0.00174
25	C	0.447289	0.557591	0.001579
26	C	0.392068	0.530405	0.00174
27	C	0.364587	0.558045	0.001956
28	C	0.391285	0.778668	0.002026
29	C	0.446832	0.807518	0.001956
30	C	0.474473	0.862642	0.00174
31	C	0.447289	0.890677	0.001579
32	C	0.39207	0.862642	0.00174
33	C	0.364588	0.807518	0.001955
34	C	0.226208	0.613591	0.002026
35	C	0.19736	0.640292	0.001955
36	C	0.142238	0.612808	0.00174
37	C	0.114202	0.557591	0.001579
38	C	0.142237	0.530405	0.00174
39	C	0.197359	0.558045	0.001956
40	H	0.514565	0.882128	0.001653
41	H	0.468092	0.788744	0.00201
42	H	0.371464	0.882128	0.001653
43	H	0.324553	0.788744	0.002011
44	H	0.216132	0.680322	0.002011
45	H	0.122749	0.633415	0.001653
46	H	0.216132	0.536784	0.00201
47	H	0.122748	0.490312	0.001653
48	H	0.324553	0.536784	0.00201
49	H	0.371464	0.490312	0.001653
50	H	0.514566	0.633415	0.001653
51	H	0.468092	0.680322	0.002011
52	C	0.642543	0.281186	0.002116
53	N	0.617174	0.309076	0.00211
54	C	0.642541	0.362334	0.002115
55	N	0.695801	0.387701	0.00211
56	C	0.723692	0.362334	0.002115
57	N	0.695802	0.309076	0.00211
58	C	0.614565	0.390312	0.002084
59	C	0.559017	0.363617	0.002048
60	C	0.531376	0.391099	0.001887
61	C	0.558557	0.446322	0.00175
62	C	0.613775	0.4735	0.00189
63	C	0.64126	0.44586	0.002047
64	C	0.614564	0.225228	0.002084
65	C	0.559017	0.196376	0.002047
66	C	0.531377	0.141253	0.001887
67	C	0.558556	0.113212	0.00175
68	C	0.613776	0.141253	0.001887
69	C	0.64126	0.196376	0.002048
70	C	0.779648	0.390312	0.002084
71	C	0.8085	0.363618	0.002047
72	C	0.863624	0.3911	0.001887
73	C	0.891666	0.446322	0.00175
74	C	0.863624	0.4735	0.00189
75	C	0.8085	0.44586	0.002048
76	H	0.491283	0.121764	0.00181
77	H	0.537758	0.215148	0.00208
78	H	0.634382	0.121764	0.00181
79	H	0.681291	0.215148	0.002079
80	H	0.789728	0.323584	0.00208
81	H	0.883112	0.370494	0.00181
82	H	0.789726	0.46712	0.002079
83	H	0.883112	0.513593	0.001806
84	H	0.681294	0.46712	0.002079
85	H	0.634382	0.513593	0.00181
86	H	0.491282	0.370494	0.00181
87	H	0.537756	0.323584	0.002079
88	C	0.530905	0.473973	0.334714
89	C	0.516636	0.48824	0.041795
90	C	0.489362	0.515516	0.041449
91	C	0.474946	0.529931	0.33456
92	C	0.489129	0.515747	0.293895
93	C	0.516787	0.488087	0.293961
94	H	0.526542	0.478332	0.264039
95	H	0.479421	0.525455	0.26393
96	N	0.481488	0.523387	0.083911
97	O	0.526325	0.478551	0.084247
98	C	0.503533	0.501343	0.108373
99	H	0.503323	0.501555	0.142538
100	C	0.530904	0.057909	0.334714
101	C	0.516636	0.029371	0.041794
102	C	0.489362	0.974823	0.041449
103	C	0.474947	0.945993	0.33456
104	C	0.489131	0.974361	0.293895
105	C	0.516787	0.029674	0.293961
106	H	0.526543	0.049185	0.264039
107	H	0.479421	0.954941	0.26393
108	N	0.481489	0.959077	0.083911
109	O	0.526325	0.04875	0.084247
110	C	0.503533	0.003167	0.108373
111	H	0.503323	0.002746	0.142538
112	C	0.946969	0.473973	0.334714
113	C	0.975503	0.48824	0.041794
114	C	0.975199	0.488087	0.293961
115	H	0.955691	0.478332	0.264039
116	O	0.956126	0.478551	0.084247
117	C	0.001708	0.501343	0.108373
118	H	0.002132	0.501555	0.142538
119	C	0.363308	0.722714	0.335437
120	N	0.388677	0.694828	0.335427
121	C	0.363307	0.641568	0.335437
122	N	0.31005	0.6162	0.335427
123	C	0.282162	0.641568	0.335437
124	N	0.310051	0.694828	0.335427
125	C	0.391284	0.613591	0.33536
126	C	0.446832	0.640292	0.33529
127	C	0.474471	0.612808	0.335072
128	C	0.447289	0.557591	0.334911
129	C	0.392068	0.530405	0.335072
130	C	0.364587	0.558045	0.33529
131	C	0.391285	0.778668	0.33536
132	C	0.446832	0.807518	0.33529
133	C	0.474473	0.862642	0.335072
134	C	0.447289	0.890677	0.334911
135	C	0.39207	0.862642	0.335072
136	C	0.364588	0.807518	0.33529
137	C	0.226208	0.613591	0.33536
138	C	0.19736	0.640292	0.33529
139	C	0.142238	0.612808	0.335072
140	C	0.114202	0.557591	0.334911
141	C	0.142237	0.530405	0.335072
142	C	0.197359	0.558045	0.33529
143	H	0.514565	0.882128	0.334985
144	H	0.468092	0.788744	0.335343
145	H	0.371464	0.882128	0.334985
146	H	0.324553	0.788744	0.335343
147	H	0.216132	0.680322	0.335343
148	H	0.122749	0.633415	0.334985
149	H	0.216132	0.536784	0.335343
150	H	0.122748	0.490312	0.334985
151	H	0.324553	0.536784	0.335343
152	H	0.371464	0.490312	0.334985
153	H	0.514566	0.633415	0.334985
154	H	0.468092	0.680322	0.335343
155	C	0.642543	0.281186	0.33545
156	N	0.617174	0.309076	0.335444
157	C	0.642541	0.362334	0.33545
158	N	0.695801	0.387701	0.335444
159	C	0.723692	0.362334	0.33545
160	N	0.695802	0.309076	0.335444
161	C	0.614565	0.390312	0.335417
162	C	0.559017	0.363617	0.33538
163	C	0.531376	0.391099	0.335219
164	C	0.558557	0.446322	0.335082
165	C	0.613775	0.4735	0.335223
166	C	0.64126	0.44586	0.33538
167	C	0.614564	0.225228	0.335417
168	C	0.559017	0.196376	0.33538
169	C	0.531377	0.141253	0.335219
170	C	0.558556	0.113212	0.335082
171	C	0.613776	0.141253	0.335219
172	C	0.64126	0.196376	0.33538
173	C	0.779648	0.390312	0.335417
174	C	0.8085	0.363618	0.33538
175	C	0.863624	0.3911	0.335219
176	C	0.891666	0.446322	0.335082
177	C	0.863624	0.4735	0.335223
178	C	0.8085	0.44586	0.33538
179	H	0.491283	0.121764	0.335142
180	H	0.537758	0.215148	0.335413
181	H	0.634382	0.121764	0.335142
182	H	0.681291	0.215148	0.335413
183	H	0.789728	0.323584	0.335413
184	H	0.883112	0.370494	0.335142
185	H	0.789726	0.46712	0.335413
186	H	0.883112	0.513593	0.335139
187	H	0.681294	0.46712	0.335413
188	H	0.634382	0.513593	0.335142
189	H	0.491282	0.370494	0.335142
190	H	0.537756	0.323584	0.335413
191	C	0.530905	0.473973	0.668049
192	C	0.516636	0.48824	0.375128
193	C	0.489362	0.515516	0.374783
194	C	0.474946	0.529931	0.667892
195	C	0.489129	0.515747	0.627227
196	C	0.516787	0.488087	0.627294
197	H	0.526542	0.478332	0.597371
198	H	0.479421	0.525455	0.597264
199	N	0.481488	0.523387	0.417245
200	O	0.526325	0.478551	0.417579
201	C	0.503533	0.501343	0.441707
202	H	0.503323	0.501555	0.475873
203	C	0.530904	0.057909	0.668049
204	C	0.516636	0.029371	0.375128
205	C	0.489362	0.974823	0.374783
206	C	0.474947	0.945993	0.667892
207	C	0.489131	0.974361	0.627227
208	C	0.516787	0.029674	0.627294
209	H	0.526543	0.049185	0.597371
210	H	0.479421	0.954941	0.597264
211	N	0.481489	0.959077	0.417245
212	O	0.526325	0.04875	0.417579
213	C	0.503533	0.003167	0.441707
214	H	0.503323	0.002746	0.475873
215	C	0.946969	0.473973	0.668049
216	C	0.975503	0.48824	0.375128
217	C	0.975199	0.488087	0.627294
218	H	0.955691	0.478332	0.597371
219	O	0.956126	0.478551	0.417579
220	C	0.001708	0.501343	0.441707
221	H	0.002132	0.501555	0.475873
222	C	0.363308	0.722714	0.668769
223	N	0.388677	0.694828	0.668762
224	C	0.363307	0.641568	0.668769
225	N	0.31005	0.6162	0.668762
226	C	0.282162	0.641568	0.668772
227	N	0.310051	0.694828	0.668762
228	C	0.391284	0.613591	0.668692
229	C	0.446832	0.640292	0.668622
230	C	0.474471	0.612808	0.668404
231	C	0.447289	0.557591	0.668244
232	C	0.392068	0.530405	0.668404
233	C	0.364587	0.558045	0.668622
234	C	0.391285	0.778668	0.668692
235	C	0.446832	0.807518	0.668622
236	C	0.474473	0.862642	0.668407
237	C	0.447289	0.890677	0.668244
238	C	0.39207	0.862642	0.668404
239	C	0.364588	0.807518	0.668622
240	C	0.226208	0.613591	0.668692
241	C	0.19736	0.640292	0.668622
242	C	0.142238	0.612808	0.668407
243	C	0.114202	0.557591	0.668244
244	C	0.142237	0.530405	0.668407
245	C	0.197359	0.558045	0.668622
246	H	0.514565	0.882128	0.668317
247	H	0.468092	0.788744	0.668675
248	H	0.371464	0.882128	0.668317
249	H	0.324553	0.788744	0.668679
250	H	0.216132	0.680322	0.668679
251	H	0.122749	0.633415	0.668317
252	H	0.216132	0.536784	0.668679
253	H	0.122748	0.490312	0.668317
254	H	0.324553	0.536784	0.668679
255	H	0.371464	0.490312	0.668317
256	H	0.514566	0.633415	0.66832
257	H	0.468092	0.680322	0.668679
258	C	0.642543	0.281186	0.668782
259	N	0.617174	0.309076	0.668776
260	C	0.642541	0.362334	0.668782
261	N	0.695801	0.387701	0.668776
262	C	0.723692	0.362334	0.668782
263	N	0.695802	0.309076	0.668776
264	C	0.614565	0.390312	0.668752
265	C	0.559017	0.363617	0.668715
266	C	0.531376	0.391099	0.668555
267	C	0.558557	0.446322	0.668418
268	C	0.613775	0.4735	0.668555
269	C	0.64126	0.44586	0.668715
270	C	0.614564	0.225228	0.668752
271	C	0.559017	0.196376	0.668715
272	C	0.531377	0.141253	0.668555
273	C	0.558556	0.113212	0.668418
274	C	0.613776	0.141253	0.668555
275	C	0.64126	0.196376	0.668715
276	C	0.779648	0.390312	0.668752
277	C	0.8085	0.363618	0.668715
278	C	0.863624	0.3911	0.668555
279	C	0.891666	0.446322	0.668418
280	C	0.863624	0.4735	0.668558
281	C	0.8085	0.44586	0.668715
282	H	0.491283	0.121764	0.668474
283	H	0.537758	0.215148	0.668749
284	H	0.634382	0.121764	0.668474
285	H	0.681291	0.215148	0.668745
286	H	0.789728	0.323584	0.668745
287	H	0.883112	0.370494	0.668474
288	H	0.789726	0.46712	0.668745
289	H	0.883112	0.513593	0.668474
290	H	0.681294	0.46712	0.668745
291	H	0.634382	0.513593	0.668474
292	H	0.491282	0.370494	0.668474
293	H	0.537756	0.323584	0.668745
294	C	0.530905	0.473973	0.001381
295	C	0.516636	0.48824	0.708463
296	C	0.489362	0.515516	0.708115
297	C	0.474946	0.529931	0.001228
298	C	0.489129	0.515747	0.960563
299	C	0.516787	0.488087	0.96063
300	H	0.526542	0.478332	0.930707
301	H	0.479421	0.525455	0.930596
302	N	0.481488	0.523387	0.750577
303	O	0.526325	0.478551	0.750915
304	C	0.503533	0.501343	0.775039
305	H	0.503323	0.501555	0.809205
306	C	0.530904	0.057909	0.001381
307	C	0.516636	0.029371	0.70846
308	C	0.489362	0.974823	0.708115
309	C	0.474947	0.945993	0.001228
310	C	0.489131	0.974361	0.960563
311	C	0.516787	0.029674	0.960626
312	H	0.526543	0.049185	0.930707
313	H	0.479421	0.954941	0.930596
314	N	0.481489	0.959077	0.750577
315	O	0.526325	0.04875	0.750915
316	C	0.503533	0.003167	0.775039
317	H	0.503323	0.002746	0.809205
318	C	0.946969	0.473973	0.001381
319	C	0.975503	0.48824	0.70846
320	C	0.975199	0.488087	0.960626
321	H	0.955691	0.478332	0.930707
322	O	0.956126	0.478551	0.750915
323	C	0.001708	0.501343	0.775039
324	H	0.002132	0.501555	0.809205
