data_C324H108N108_2018-02-15_10:40:00
#******************************************
#
# CIF file created by Zeo++
# Zeo++ is an open source package to
# analyze microporous materials
#
#*******************************************

_cell_length_a		29.2234   
_cell_length_b		29.2234   
_cell_length_c		29.5036   
_cell_angle_alpha		90   
_cell_angle_beta		90   
_cell_angle_gamma		120   

_symmetry_space_group_name_H-M		'P1'
_symmetry_Int_Tables_number		1
_symmetry_cell_setting		Monoclinic

loop_
_symmetry_equiv_pos_as_xyz
'+x,+y,+z'

loop_
_atom_site_label
_atom_site_type_symbol
_atom_site_fract_x
_atom_site_fract_y
_atom_site_fract_z
1	C	0.123249	0.313729	0.00953
2	C	0.151467	0.36957	0.009499
3	C	0.151465	0.286104	0.009549
4	H	0.131207	0.24559	0.00931
5	H	0.131211	0.389827	0.009252
6	C	0.038753	0.271514	0.301379
7	C	0.067763	0.285985	0.008845
8	N	0.040322	0.27224	0.048455
9	H	0.057189	0.28075	0.270552
10	C	0.123249	0.313729	0.342864
11	C	0.151467	0.36957	0.34283
12	C	0.151465	0.286104	0.342881
13	H	0.131207	0.24559	0.342643
14	H	0.131211	0.389827	0.342586
15	C	0.038753	0.271514	0.63471
16	C	0.067763	0.285985	0.342179
17	N	0.040322	0.27224	0.381788
18	H	0.057189	0.28075	0.603887
19	C	0.123249	0.313729	0.676197
20	C	0.151467	0.36957	0.676163
21	C	0.151465	0.286104	0.676213
22	H	0.131207	0.24559	0.675976
23	H	0.131211	0.389827	0.675919
24	C	0.038753	0.271514	0.968043
25	C	0.067763	0.285985	0.675512
26	N	0.040322	0.27224	0.715121
27	H	0.057189	0.28075	0.937219
28	C	0.123248	0.813727	0.00953
29	C	0.151467	0.86957	0.009499
30	C	0.151464	0.786103	0.009549
31	H	0.131207	0.745591	0.00931
32	H	0.131211	0.889828	0.009252
33	C	0.038755	0.771515	0.301379
34	C	0.067763	0.785985	0.008845
35	N	0.040321	0.772238	0.048455
36	H	0.057189	0.780749	0.270552
37	C	0.123248	0.813727	0.342864
38	C	0.151467	0.86957	0.34283
39	C	0.151464	0.786103	0.342881
40	H	0.131207	0.745591	0.342643
41	H	0.131211	0.889828	0.342586
42	C	0.038755	0.771515	0.63471
43	C	0.067763	0.785985	0.342179
44	N	0.040321	0.772238	0.381788
45	H	0.057189	0.780749	0.603887
46	C	0.123248	0.813727	0.676197
47	C	0.151467	0.86957	0.676163
48	C	0.151464	0.786103	0.676213
49	H	0.131207	0.745591	0.675976
50	H	0.131211	0.889828	0.675919
51	C	0.038755	0.771515	0.968043
52	C	0.067763	0.785985	0.675512
53	N	0.040321	0.772238	0.715121
54	H	0.057189	0.780749	0.937219
55	C	0.207309	0.397787	0.009519
56	C	0.207306	0.313727	0.009541
57	C	0.207309	0.397787	0.34285
58	C	0.207306	0.313727	0.342874
59	C	0.207309	0.397787	0.676183
60	C	0.207306	0.313727	0.676207
61	C	0.207308	0.897786	0.009519
62	C	0.207305	0.813727	0.009541
63	C	0.207308	0.897786	0.34285
64	C	0.207305	0.813727	0.342874
65	C	0.207308	0.897786	0.676183
66	C	0.207305	0.813727	0.676207
67	C	0.234931	0.369568	0.009525
68	H	0.249822	0.127017	0.008319
69	C	0.24957	0.271505	0.301377
70	C	0.235047	0.285983	0.008848
71	N	0.248758	0.272244	0.048454
72	H	0.24036	0.280737	0.270554
73	C	0.249516	0.482285	0.301374
74	C	0.235053	0.453271	0.008837
75	N	0.248801	0.480709	0.048449
76	H	0.240276	0.463853	0.270546
77	C	0.234931	0.369568	0.342857
78	H	0.249822	0.127017	0.341654
79	C	0.24957	0.271505	0.63471
80	C	0.235047	0.285983	0.342183
81	N	0.248758	0.272244	0.381788
82	H	0.24036	0.280737	0.603887
83	C	0.249516	0.482285	0.634707
84	C	0.235053	0.453271	0.342169
85	N	0.248801	0.480709	0.381781
86	H	0.240276	0.463853	0.60388
87	C	0.234931	0.369568	0.67619
88	H	0.249822	0.127017	0.674986
89	C	0.24957	0.271505	0.968043
90	C	0.235047	0.285983	0.675515
91	N	0.248758	0.272244	0.715121
92	H	0.24036	0.280737	0.937219
93	C	0.249516	0.482285	0.968039
94	C	0.235053	0.453271	0.675502
95	N	0.248801	0.480709	0.715114
96	H	0.240276	0.463853	0.937213
97	C	0.23493	0.869566	0.009525
98	H	0.249822	0.627017	0.008319
99	C	0.249569	0.771503	0.301377
100	C	0.235046	0.785981	0.008848
101	N	0.248757	0.772242	0.048454
102	H	0.24036	0.780737	0.270554
103	C	0.249515	0.982284	0.301374
104	C	0.235052	0.95327	0.008837
105	N	0.2488	0.980708	0.048449
106	H	0.240275	0.963852	0.270546
107	C	0.23493	0.869566	0.342857
108	H	0.249822	0.627017	0.341654
109	C	0.249569	0.771503	0.63471
110	C	0.235046	0.785981	0.342183
111	N	0.248757	0.772242	0.381788
112	H	0.24036	0.780737	0.603887
113	C	0.249515	0.982284	0.634707
114	C	0.235052	0.95327	0.342169
115	N	0.2488	0.980708	0.381781
116	H	0.240275	0.963852	0.60388
117	C	0.23493	0.869566	0.67619
118	H	0.249822	0.627017	0.674986
119	C	0.249569	0.771503	0.968043
120	C	0.235046	0.785981	0.675515
121	N	0.248757	0.772242	0.715121
122	H	0.24036	0.780737	0.937219
123	C	0.249515	0.982284	0.968039
124	C	0.235052	0.95327	0.675502
125	N	0.2488	0.980708	0.715114
126	H	0.240275	0.963852	0.937213
127	H	0.275445	0.389824	0.009287
128	C	0.401984	0.203095	0.007201
129	C	0.37377	0.147265	0.007499
130	C	0.317939	0.119052	0.007204
131	C	0.290322	0.147266	0.007445
132	C	0.31794	0.203097	0.007177
133	C	0.373771	0.230714	0.007438
134	H	0.394022	0.271213	0.008309
135	H	0.394019	0.127014	0.00837
136	C	0.290172	0.230872	0.009581
137	N	0.276376	0.244699	0.303355
138	C	0.275593	0.245413	0.050667
139	C	0.286449	0.234555	0.090642
140	N	0.29618	0.224829	0.125802
141	C	0.290161	0.063509	0.009596
142	N	0.276321	0.035897	0.303364
143	C	0.275632	0.034376	0.050675
144	C	0.286488	0.05608	0.090654
145	N	0.29621	0.075534	0.125816
146	C	0.457527	0.230873	0.009596
147	N	0.485142	0.244708	0.303365
148	C	0.486655	0.245408	0.050677
149	C	0.46495	0.234553	0.090655
150	N	0.445494	0.224831	0.125816
151	H	0.275445	0.389824	0.34262
152	C	0.401984	0.203095	0.340535
153	C	0.37377	0.147265	0.34083
154	C	0.317939	0.119052	0.340539
155	C	0.290322	0.147266	0.340779
156	C	0.31794	0.203097	0.340512
157	C	0.373771	0.230714	0.340773
158	H	0.394022	0.271213	0.341644
159	H	0.394019	0.127014	0.341705
160	C	0.290172	0.230872	0.342915
161	N	0.276376	0.244699	0.636689
162	C	0.275593	0.245413	0.384001
163	C	0.286449	0.234555	0.423976
164	N	0.29618	0.224829	0.459135
165	C	0.290161	0.063509	0.342928
166	N	0.276321	0.035897	0.636696
167	C	0.275632	0.034376	0.384008
168	C	0.286488	0.05608	0.423986
169	N	0.29621	0.075534	0.459148
170	C	0.457527	0.230873	0.342928
171	N	0.485142	0.244708	0.6367
172	C	0.486655	0.245408	0.384008
173	C	0.46495	0.234553	0.423986
174	N	0.445494	0.224831	0.459148
175	H	0.275445	0.389824	0.675952
176	C	0.401984	0.203095	0.673868
177	C	0.37377	0.147265	0.674163
178	C	0.317939	0.119052	0.673871
179	C	0.290322	0.147266	0.674112
180	C	0.31794	0.203097	0.673844
181	C	0.373771	0.230714	0.674105
182	H	0.394022	0.271213	0.674976
183	H	0.394019	0.127014	0.675037
184	C	0.290172	0.230872	0.676247
185	N	0.276376	0.244699	0.970022
186	C	0.275593	0.245413	0.717334
187	C	0.286449	0.234555	0.757309
188	N	0.29618	0.224829	0.792467
189	C	0.290161	0.063509	0.676261
190	N	0.276321	0.035897	0.970029
191	C	0.275632	0.034376	0.717341
192	C	0.286488	0.05608	0.757319
193	N	0.29621	0.075534	0.792481
194	C	0.457527	0.230873	0.676261
195	N	0.485142	0.244708	0.970032
196	C	0.486655	0.245408	0.717344
197	C	0.46495	0.234553	0.757319
198	N	0.445494	0.224831	0.792481
199	H	0.275445	0.889824	0.009288
200	C	0.401983	0.703095	0.007201
201	C	0.373768	0.647263	0.007499
202	C	0.317939	0.619051	0.007204
203	C	0.290323	0.647267	0.007445
204	C	0.317939	0.703095	0.007177
205	C	0.373771	0.730714	0.007438
206	H	0.394022	0.771215	0.008309
207	H	0.394018	0.627013	0.00837
208	C	0.290172	0.730872	0.009581
209	N	0.276375	0.744698	0.303355
210	C	0.275593	0.745413	0.050667
211	C	0.286449	0.734555	0.090642
212	N	0.296179	0.724827	0.125802
213	C	0.29016	0.563508	0.009596
214	N	0.276321	0.535896	0.303364
215	C	0.275632	0.534375	0.050675
216	C	0.286488	0.556079	0.090654
217	N	0.296208	0.575532	0.125816
218	C	0.457527	0.730872	0.009596
219	N	0.485142	0.744706	0.303365
220	C	0.486657	0.745409	0.050677
221	C	0.464948	0.734551	0.090655
222	N	0.445493	0.724831	0.125816
223	H	0.275445	0.889824	0.34262
224	C	0.401983	0.703095	0.340535
225	C	0.373768	0.647263	0.34083
226	C	0.317939	0.619051	0.340539
227	C	0.290323	0.647267	0.340779
228	C	0.317939	0.703095	0.340512
229	C	0.373771	0.730714	0.340773
230	H	0.394022	0.771215	0.341644
231	H	0.394018	0.627013	0.341705
232	C	0.290172	0.730872	0.342915
233	N	0.276375	0.744698	0.636689
234	C	0.275593	0.745413	0.384001
235	C	0.286449	0.734555	0.423976
236	N	0.296179	0.724827	0.459135
237	C	0.29016	0.563508	0.342928
238	N	0.276321	0.535896	0.636696
239	C	0.275632	0.534375	0.384008
240	C	0.286488	0.556079	0.423986
241	N	0.296208	0.575532	0.459148
242	C	0.457527	0.730872	0.342928
243	N	0.485142	0.744706	0.6367
244	C	0.486657	0.745409	0.384008
245	C	0.464948	0.734551	0.423986
246	N	0.445493	0.724831	0.459148
247	H	0.275445	0.889824	0.675952
248	C	0.401983	0.703095	0.673868
249	C	0.373768	0.647263	0.674166
250	C	0.317939	0.619051	0.673871
251	C	0.290323	0.647267	0.674112
252	C	0.317939	0.703095	0.673844
253	C	0.373771	0.730714	0.674105
254	H	0.394022	0.771215	0.674976
255	H	0.394018	0.627013	0.675037
256	C	0.290172	0.730872	0.676247
257	N	0.276375	0.744698	0.970022
258	C	0.275593	0.745413	0.717334
259	C	0.286449	0.734555	0.757309
260	N	0.296179	0.724827	0.792467
261	C	0.29016	0.563508	0.676261
262	N	0.276321	0.535896	0.970029
263	C	0.275632	0.534375	0.717341
264	C	0.286488	0.556079	0.757319
265	N	0.296208	0.575532	0.792481
266	C	0.457527	0.730872	0.676261
267	N	0.485142	0.744706	0.970032
268	C	0.486657	0.745409	0.717344
269	C	0.464948	0.734551	0.757319
270	N	0.445493	0.724831	0.792481
271	C	0.623251	0.313729	0.00953
272	C	0.651469	0.36957	0.009499
273	C	0.707308	0.397787	0.009519
274	C	0.734932	0.369568	0.009525
275	C	0.707306	0.313727	0.009541
276	C	0.651467	0.286104	0.009549
277	H	0.775447	0.389824	0.009287
278	H	0.631206	0.24559	0.00931
279	H	0.631211	0.389827	0.009252
280	C	0.901985	0.203095	0.007201
281	C	0.873768	0.147265	0.007499
282	C	0.817939	0.119052	0.007204
283	C	0.790322	0.147266	0.007445
284	C	0.81794	0.203097	0.007177
285	C	0.873773	0.230714	0.007438
286	H	0.749822	0.127017	0.008319
287	H	0.894023	0.271213	0.008309
288	H	0.89402	0.127014	0.00837
289	C	0.790173	0.230872	0.009581
290	N	0.776377	0.244699	0.303355
291	C	0.749569	0.271505	0.301377
292	C	0.735048	0.285983	0.008848
293	N	0.748758	0.272244	0.048454
294	C	0.775594	0.245413	0.050667
295	H	0.74036	0.280737	0.270554
296	C	0.78645	0.234555	0.090642
297	N	0.796181	0.224829	0.125802
298	C	0.79016	0.063509	0.009596
299	N	0.77632	0.035897	0.303364
300	C	0.749516	0.482285	0.301374
301	C	0.735053	0.453271	0.008837
302	N	0.7488	0.480709	0.048449
303	C	0.775631	0.034376	0.050675
304	H	0.740276	0.463853	0.270546
305	C	0.786487	0.05608	0.090654
306	N	0.796211	0.075534	0.125816
307	C	0.957529	0.230873	0.009596
308	N	0.985142	0.244708	0.303365
309	C	0.538753	0.271514	0.301379
310	C	0.567762	0.285985	0.008845
311	N	0.540324	0.27224	0.048455
312	C	0.986655	0.245408	0.050677
313	H	0.557188	0.28075	0.270552
314	C	0.96495	0.234553	0.090655
315	N	0.945494	0.224831	0.125816
316	C	0.623251	0.313729	0.342864
317	C	0.651469	0.36957	0.34283
318	C	0.707308	0.397787	0.34285
319	C	0.734932	0.369568	0.342857
320	C	0.707306	0.313727	0.342874
321	C	0.651467	0.286104	0.342881
322	H	0.775447	0.389824	0.34262
323	H	0.631206	0.24559	0.342643
324	H	0.631211	0.389827	0.342586
325	C	0.901985	0.203095	0.340535
326	C	0.873768	0.147265	0.34083
327	C	0.817939	0.119052	0.340539
328	C	0.790322	0.147266	0.340779
329	C	0.81794	0.203097	0.340512
330	C	0.873773	0.230714	0.340773
331	H	0.749822	0.127017	0.341654
332	H	0.894023	0.271213	0.341644
333	H	0.89402	0.127014	0.341705
334	C	0.790173	0.230872	0.342915
335	N	0.776377	0.244699	0.636689
336	C	0.749569	0.271505	0.63471
337	C	0.735048	0.285983	0.342183
338	N	0.748758	0.272244	0.381788
339	C	0.775594	0.245413	0.384001
340	H	0.74036	0.280737	0.603887
341	C	0.78645	0.234555	0.423976
342	N	0.796181	0.224829	0.459135
343	C	0.79016	0.063509	0.342928
344	N	0.77632	0.035897	0.636696
345	C	0.749516	0.482285	0.634707
346	C	0.735053	0.453271	0.342169
347	N	0.7488	0.480709	0.381781
348	C	0.775631	0.034376	0.384008
349	H	0.740276	0.463853	0.60388
350	C	0.786487	0.05608	0.423986
351	N	0.796211	0.075534	0.459148
352	C	0.957529	0.230873	0.342928
353	N	0.985142	0.244708	0.6367
354	C	0.538753	0.271514	0.63471
355	C	0.567762	0.285985	0.342179
356	N	0.540324	0.27224	0.381788
357	C	0.986655	0.245408	0.384008
358	H	0.557188	0.28075	0.603887
359	C	0.96495	0.234553	0.423986
360	N	0.945494	0.224831	0.459148
361	C	0.623251	0.313729	0.676197
362	C	0.651469	0.36957	0.676163
363	C	0.707308	0.397787	0.676183
364	C	0.734932	0.369568	0.67619
365	C	0.707306	0.313727	0.676207
366	C	0.651467	0.286104	0.676213
367	H	0.775447	0.389824	0.675952
368	H	0.631206	0.24559	0.675976
369	H	0.631211	0.389827	0.675919
370	C	0.901985	0.203095	0.673868
371	C	0.873768	0.147265	0.674163
372	C	0.817939	0.119052	0.673871
373	C	0.790322	0.147266	0.674112
374	C	0.81794	0.203097	0.673844
375	C	0.873773	0.230714	0.674105
376	H	0.749822	0.127017	0.674986
377	H	0.894023	0.271213	0.674976
378	H	0.89402	0.127014	0.675037
379	C	0.790173	0.230872	0.676247
380	N	0.776377	0.244699	0.970022
381	C	0.749569	0.271505	0.968043
382	C	0.735048	0.285983	0.675515
383	N	0.748758	0.272244	0.715121
384	C	0.775594	0.245413	0.717334
385	H	0.74036	0.280737	0.937219
386	C	0.78645	0.234555	0.757309
387	N	0.796181	0.224829	0.792467
388	C	0.79016	0.063509	0.676261
389	N	0.77632	0.035897	0.970029
390	C	0.749516	0.482285	0.968039
391	C	0.735053	0.453271	0.675502
392	N	0.7488	0.480709	0.715114
393	C	0.775631	0.034376	0.717341
394	H	0.740276	0.463853	0.937213
395	C	0.786487	0.05608	0.757319
396	N	0.796211	0.075534	0.792481
397	C	0.957529	0.230873	0.676261
398	N	0.985142	0.244708	0.970032
399	C	0.538753	0.271514	0.968043
400	C	0.567762	0.285985	0.675512
401	N	0.540324	0.27224	0.715121
402	C	0.986655	0.245408	0.717344
403	H	0.557188	0.28075	0.937219
404	C	0.96495	0.234553	0.757319
405	N	0.945494	0.224831	0.792481
406	C	0.623248	0.813727	0.00953
407	C	0.651468	0.86957	0.009499
408	C	0.707308	0.897786	0.009519
409	C	0.73493	0.869566	0.009525
410	C	0.707306	0.813727	0.009541
411	C	0.651465	0.786103	0.009549
412	H	0.775445	0.889824	0.009288
413	H	0.631208	0.745591	0.00931
414	H	0.631211	0.889828	0.009252
415	C	0.901983	0.703095	0.007201
416	C	0.873769	0.647263	0.007499
417	C	0.81794	0.619051	0.007204
418	C	0.790325	0.647267	0.007445
419	C	0.817937	0.703095	0.007177
420	C	0.873772	0.730714	0.007438
421	H	0.749823	0.627017	0.008319
422	H	0.894022	0.771215	0.008309
423	H	0.894017	0.627013	0.00837
424	C	0.790171	0.730872	0.009581
425	N	0.776374	0.744698	0.303355
426	C	0.74957	0.771503	0.301377
427	C	0.735046	0.785981	0.008848
428	N	0.748759	0.772242	0.048454
429	C	0.775593	0.745413	0.050667
430	H	0.740359	0.780737	0.270554
431	C	0.786448	0.734555	0.090642
432	N	0.796179	0.724827	0.125802
433	C	0.790162	0.563508	0.009596
434	N	0.776322	0.535896	0.303364
435	C	0.749516	0.982284	0.301374
436	C	0.735052	0.95327	0.008837
437	N	0.7488	0.980708	0.048449
438	C	0.775633	0.534375	0.050675
439	H	0.740275	0.963852	0.270546
440	C	0.786488	0.556079	0.090654
441	N	0.796208	0.575532	0.125816
442	C	0.957527	0.730872	0.009596
443	N	0.985143	0.744706	0.303365
444	C	0.538754	0.771515	0.301379
445	C	0.567763	0.785985	0.008845
446	N	0.540321	0.772238	0.048455
447	C	0.986658	0.745409	0.050677
448	H	0.557189	0.780749	0.270552
449	C	0.964947	0.734551	0.090655
450	N	0.945493	0.724831	0.125816
451	C	0.623248	0.813727	0.342864
452	C	0.651468	0.86957	0.34283
453	C	0.707308	0.897786	0.34285
454	C	0.73493	0.869566	0.342857
455	C	0.707306	0.813727	0.342874
456	C	0.651465	0.786103	0.342881
457	H	0.775445	0.889824	0.34262
458	H	0.631208	0.745591	0.342643
459	H	0.631211	0.889828	0.342586
460	C	0.901983	0.703095	0.340535
461	C	0.873769	0.647263	0.34083
462	C	0.81794	0.619051	0.340539
463	C	0.790325	0.647267	0.340779
464	C	0.817937	0.703095	0.340512
465	C	0.873772	0.730714	0.340773
466	H	0.749823	0.627017	0.341654
467	H	0.894022	0.771215	0.341644
468	H	0.894017	0.627013	0.341705
469	C	0.790171	0.730872	0.342915
470	N	0.776374	0.744698	0.636689
471	C	0.74957	0.771503	0.63471
472	C	0.735046	0.785981	0.342183
473	N	0.748759	0.772242	0.381788
474	C	0.775593	0.745413	0.384001
475	H	0.740359	0.780737	0.603887
476	C	0.786448	0.734555	0.423976
477	N	0.796179	0.724827	0.459135
478	C	0.790162	0.563508	0.342928
479	N	0.776322	0.535896	0.636696
480	C	0.749516	0.982284	0.634707
481	C	0.735052	0.95327	0.342169
482	N	0.7488	0.980708	0.381781
483	C	0.775633	0.534375	0.384008
484	H	0.740275	0.963852	0.60388
485	C	0.786488	0.556079	0.423986
486	N	0.796208	0.575532	0.459148
487	C	0.957527	0.730872	0.342928
488	N	0.985143	0.744706	0.6367
489	C	0.538754	0.771515	0.63471
490	C	0.567763	0.785985	0.342179
491	N	0.540321	0.772238	0.381788
492	C	0.986658	0.745409	0.384008
493	H	0.557189	0.780749	0.603887
494	C	0.964947	0.734551	0.423986
495	N	0.945493	0.724831	0.459148
496	C	0.623248	0.813727	0.676197
497	C	0.651468	0.86957	0.676163
498	C	0.707308	0.897786	0.676183
499	C	0.73493	0.869566	0.67619
500	C	0.707306	0.813727	0.676207
501	C	0.651465	0.786103	0.676213
502	H	0.775445	0.889824	0.675952
503	H	0.631208	0.745591	0.675976
504	H	0.631211	0.889828	0.675919
505	C	0.901983	0.703095	0.673868
506	C	0.873769	0.647263	0.674166
507	C	0.81794	0.619051	0.673871
508	C	0.790325	0.647267	0.674112
509	C	0.817937	0.703095	0.673844
510	C	0.873772	0.730714	0.674105
511	H	0.749823	0.627017	0.674986
512	H	0.894022	0.771215	0.674976
513	H	0.894017	0.627013	0.675037
514	C	0.790171	0.730872	0.676247
515	N	0.776374	0.744698	0.970022
516	C	0.74957	0.771503	0.968043
517	C	0.735046	0.785981	0.675515
518	N	0.748759	0.772242	0.715121
519	C	0.775593	0.745413	0.717334
520	H	0.740359	0.780737	0.937219
521	C	0.786448	0.734555	0.757309
522	N	0.796179	0.724827	0.792467
523	C	0.790162	0.563508	0.676261
524	N	0.776322	0.535896	0.970029
525	C	0.749516	0.982284	0.968039
526	C	0.735052	0.95327	0.675502
527	N	0.7488	0.980708	0.715114
528	C	0.775633	0.534375	0.717341
529	H	0.740275	0.963852	0.937213
530	C	0.786488	0.556079	0.757319
531	N	0.796208	0.575532	0.792481
532	C	0.957527	0.730872	0.676261
533	N	0.985143	0.744706	0.970032
534	C	0.538754	0.771515	0.968043
535	C	0.567763	0.785985	0.675512
536	N	0.540321	0.772238	0.715121
537	C	0.986658	0.745409	0.717344
538	H	0.557189	0.780749	0.937219
539	C	0.964947	0.734551	0.757319
540	N	0.945493	0.724831	0.792481
