data_C360H216N144O72_2018-02-15_10:32:48
#******************************************
#
# CIF file created by Zeo++
# Zeo++ is an open source package to
# analyze microporous materials
#
#*******************************************

_cell_length_a		43.6192   
_cell_length_b		43.6192   
_cell_length_c		30.1098   
_cell_angle_alpha		90   
_cell_angle_beta		90   
_cell_angle_gamma		120   

_symmetry_space_group_name_H-M		'P1'
_symmetry_Int_Tables_number		1
_symmetry_cell_setting		Monoclinic

loop_
_symmetry_equiv_pos_as_xyz
'+x,+y,+z'

loop_
_atom_site_label
_atom_site_type_symbol
_atom_site_fract_x
_atom_site_fract_y
_atom_site_fract_z
1	C	0.172816	0.368039	0.955591
2	C	0.137173	0.340103	0.95515
3	C	0.127372	0.303857	0.955432
4	C	0.155316	0.296156	0.95508
5	C	0.191563	0.322602	0.288821
6	C	0.19927	0.35825	0.955143
7	H	0.148815	0.270338	0.957554
8	H	0.225078	0.377556	0.957806
9	H	0.117855	0.346599	0.95768
10	C	0.180722	0.403671	0.961712
11	C	0.219296	0.314703	0.294913
12	C	0.091737	0.276114	0.961456
13	O	0.25297	0.342229	0.96405
14	O	0.153194	0.409812	0.964256
15	O	0.085588	0.242439	0.963904
16	C	0.317192	0.127314	0.044895
17	C	0.354009	0.151841	0.045185
18	C	0.368154	0.188984	0.044888
19	C	0.343617	0.201265	0.045154
20	C	0.306473	0.17827	0.378258
21	C	0.294191	0.141453	0.045202
22	H	0.353314	0.227833	0.042534
23	H	0.267619	0.124583	0.042612
24	H	0.370882	0.142147	0.04254
25	C	0.30453	0.090477	0.039425
26	C	0.282298	0.190926	0.372745
27	C	0.404981	0.213157	0.039333
28	O	0.248068	0.166922	0.029859
29	O	0.328528	0.080251	0.029835
30	O	0.415196	0.247373	0.029713
31	C	0.236168	0.271005	0.317694
32	C	0.265472	0.291767	0.012328
33	C	0.283908	0.276667	0.032319
34	C	0.27278	0.240594	0.025218
35	N	0.244153	0.22236	0.331748
36	H	0.305071	0.291947	0.052411
37	H	0.273004	0.31731	0.020083
38	N	0.227076	0.23642	0.313062
39	N	0.291201	0.225666	0.042351
40	H	0.313007	0.241644	0.057822
41	N	0.214704	0.281409	0.297875
42	H	0.193349	0.26235	0.284652
43	C	0.224446	0.464234	0.317836
44	C	0.203677	0.472795	0.012432
45	C	0.218791	0.006333	0.032423
46	C	0.254862	0.031279	0.025298
47	N	0.273073	0.020891	0.331775
48	H	0.203534	0.012208	0.052567
49	H	0.178166	0.454762	0.02029
50	N	0.259012	0.489746	0.313114
51	N	0.269793	0.064638	0.042393
52	H	0.253822	0.070468	0.057878
53	N	0.214018	0.432372	0.297986
54	H	0.233066	0.430077	0.284723
55	C	0.031169	0.259252	0.317553
56	C	0.022637	0.229961	0.012208
57	C	0.489107	0.211538	0.03222
58	C	0.464161	0.222665	0.025114
59	N	0.474547	0.251277	0.331618
60	H	0.483232	0.190388	0.052331
61	H	0.04065	0.222435	0.019968
62	N	0.005677	0.268344	0.312915
63	N	0.430821	0.204258	0.042273
64	H	0.425004	0.182467	0.057776
65	N	0.063037	0.28071	0.297729
66	H	0.065337	0.302062	0.284493
67	C	0.172816	0.368039	0.288923
68	C	0.137173	0.340103	0.288481
69	C	0.127372	0.303857	0.288765
70	C	0.155316	0.296156	0.288412
71	C	0.191563	0.322602	0.622155
72	C	0.19927	0.35825	0.288477
73	H	0.148815	0.270338	0.290886
74	H	0.225078	0.377556	0.291139
75	H	0.117855	0.346599	0.291013
76	C	0.180722	0.403671	0.295045
77	C	0.219296	0.314703	0.628246
78	C	0.091737	0.276114	0.29479
79	O	0.25297	0.342229	0.297384
80	O	0.153194	0.409812	0.29759
81	O	0.085588	0.242439	0.297236
82	C	0.317192	0.127314	0.378229
83	C	0.354009	0.151841	0.378517
84	C	0.368154	0.188984	0.378222
85	C	0.343617	0.201265	0.378488
86	C	0.306473	0.17827	0.711595
87	C	0.294191	0.141453	0.378537
88	H	0.353314	0.227833	0.375867
89	H	0.267619	0.124583	0.375947
90	H	0.370882	0.142147	0.375874
91	C	0.30453	0.090477	0.372759
92	C	0.282298	0.190926	0.706081
93	C	0.404981	0.213157	0.372666
94	O	0.248068	0.166922	0.363194
95	O	0.328528	0.080251	0.36317
96	O	0.415196	0.247373	0.363047
97	C	0.236168	0.271005	0.65103
98	C	0.265472	0.291767	0.345661
99	C	0.283908	0.276667	0.365655
100	C	0.27278	0.240594	0.358551
101	N	0.244153	0.22236	0.665082
102	H	0.305071	0.291947	0.385744
103	H	0.273004	0.31731	0.353416
104	N	0.227076	0.23642	0.646397
105	N	0.291201	0.225666	0.375684
106	H	0.313007	0.241644	0.391155
107	N	0.214704	0.281409	0.631209
108	H	0.193349	0.26235	0.617987
109	C	0.224446	0.464234	0.651169
110	C	0.203677	0.472795	0.345764
111	C	0.218791	0.006333	0.365758
112	C	0.254862	0.031279	0.35863
113	N	0.273073	0.020891	0.665108
114	H	0.203534	0.012208	0.3859
115	H	0.178166	0.454762	0.353625
116	N	0.259012	0.489746	0.646446
117	N	0.269793	0.064638	0.375728
118	H	0.253822	0.070468	0.391211
119	N	0.214018	0.432372	0.631319
120	H	0.233066	0.430077	0.618057
121	C	0.031169	0.259252	0.650887
122	C	0.022637	0.229961	0.345542
123	C	0.489107	0.211538	0.365555
124	C	0.464161	0.222665	0.358448
125	N	0.474547	0.251277	0.664952
126	H	0.483232	0.190388	0.385665
127	H	0.04065	0.222435	0.3533
128	N	0.005677	0.268344	0.646247
129	N	0.430821	0.204258	0.375608
130	H	0.425004	0.182467	0.391108
131	N	0.063037	0.28071	0.631063
132	H	0.065337	0.302062	0.617828
133	C	0.172816	0.368039	0.622258
134	C	0.137173	0.340103	0.621813
135	C	0.127372	0.303857	0.622099
136	C	0.155316	0.296156	0.621747
137	C	0.191563	0.322602	0.955488
138	C	0.19927	0.35825	0.62181
139	H	0.148815	0.270338	0.624218
140	H	0.225078	0.377556	0.624474
141	H	0.117855	0.346599	0.624347
142	C	0.180722	0.403671	0.628379
143	C	0.219296	0.314703	0.961579
144	C	0.091737	0.276114	0.628124
145	O	0.25297	0.342229	0.630717
146	O	0.153194	0.409812	0.630923
147	O	0.085588	0.242439	0.630571
148	C	0.317192	0.127314	0.711561
149	C	0.354009	0.151841	0.711854
150	C	0.368154	0.188984	0.711555
151	C	0.343617	0.201265	0.71182
152	C	0.306473	0.17827	0.044926
153	C	0.294191	0.141453	0.71187
154	H	0.353314	0.227833	0.7092
155	H	0.267619	0.124583	0.70928
156	H	0.370882	0.142147	0.709207
157	C	0.30453	0.090477	0.706091
158	C	0.282298	0.190926	0.039413
159	C	0.404981	0.213157	0.706002
160	O	0.248068	0.166922	0.696526
161	O	0.328528	0.080251	0.696503
162	O	0.415196	0.247373	0.69638
163	C	0.236168	0.271005	0.984363
164	C	0.265472	0.291767	0.678994
165	C	0.283908	0.276667	0.698987
166	C	0.27278	0.240594	0.691887
167	N	0.244153	0.22236	0.998414
168	H	0.305071	0.291947	0.719081
169	H	0.273004	0.31731	0.686752
170	N	0.227076	0.23642	0.97973
171	N	0.291201	0.225666	0.709017
172	H	0.313007	0.241644	0.724491
173	N	0.214704	0.281409	0.964542
174	H	0.193349	0.26235	0.95132
175	C	0.224446	0.464234	0.984502
176	C	0.203677	0.472795	0.6791
177	C	0.218791	0.006333	0.69909
178	C	0.254862	0.031279	0.691966
179	N	0.273073	0.020891	0.998441
180	H	0.203534	0.012208	0.719233
181	H	0.178166	0.454762	0.686958
182	N	0.259012	0.489746	0.979783
183	N	0.269793	0.064638	0.709061
184	H	0.253822	0.070468	0.724547
185	N	0.214018	0.432372	0.964655
186	H	0.233066	0.430077	0.95139
187	C	0.031169	0.259252	0.98422
188	C	0.022637	0.229961	0.678874
189	C	0.489107	0.211538	0.698888
190	C	0.464161	0.222665	0.69178
191	N	0.474547	0.251277	0.998284
192	H	0.483232	0.190388	0.718998
193	H	0.04065	0.222435	0.686636
194	N	0.005677	0.268344	0.979583
195	N	0.430821	0.204258	0.708941
196	H	0.425004	0.182467	0.724444
197	N	0.063037	0.28071	0.964396
198	H	0.065337	0.302062	0.951161
199	C	0.172816	0.86804	0.955591
200	C	0.137173	0.840101	0.95515
201	C	0.127373	0.803858	0.955432
202	C	0.155316	0.796157	0.95508
203	C	0.191564	0.822603	0.288821
204	C	0.19927	0.858251	0.955143
205	H	0.148815	0.770339	0.957554
206	H	0.225079	0.877557	0.957806
207	H	0.117853	0.846598	0.95768
208	C	0.180721	0.903672	0.961712
209	C	0.219297	0.814704	0.294913
210	C	0.091736	0.776115	0.961456
211	O	0.252971	0.84223	0.96405
212	O	0.153194	0.909811	0.964256
213	O	0.085589	0.74244	0.963904
214	C	0.317193	0.627314	0.044895
215	C	0.354009	0.651841	0.045185
216	C	0.368154	0.688984	0.044888
217	C	0.343617	0.701265	0.045154
218	C	0.306474	0.678271	0.378258
219	C	0.294191	0.641453	0.045202
220	H	0.353312	0.727832	0.042534
221	H	0.267619	0.624582	0.042612
222	H	0.370881	0.642147	0.04254
223	C	0.304531	0.590478	0.039425
224	C	0.282298	0.690925	0.372745
225	C	0.40498	0.713156	0.039333
226	O	0.248069	0.666922	0.029859
227	O	0.328529	0.580252	0.029835
228	O	0.415196	0.747374	0.029713
229	C	0.236168	0.771003	0.317694
230	C	0.265473	0.791768	0.012328
231	C	0.283909	0.776668	0.032319
232	C	0.272781	0.740595	0.025218
233	N	0.244153	0.72236	0.331748
234	H	0.30507	0.791945	0.052411
235	H	0.273003	0.817309	0.020083
236	N	0.227076	0.73642	0.313062
237	N	0.291201	0.725667	0.042351
238	H	0.313006	0.741643	0.057822
239	N	0.214705	0.78141	0.297875
240	H	0.193349	0.762349	0.284652
241	C	0.224447	0.964235	0.317836
242	C	0.203679	0.972796	0.012432
243	C	0.218791	0.506333	0.032423
244	C	0.254863	0.531278	0.025298
245	N	0.273073	0.52089	0.331775
246	H	0.203533	0.512207	0.052567
247	H	0.178167	0.954763	0.02029
248	N	0.259012	0.989747	0.313114
249	N	0.269792	0.564638	0.042393
250	H	0.253821	0.570468	0.057878
251	N	0.214016	0.93237	0.297986
252	H	0.233064	0.930075	0.284723
253	C	0.031169	0.759252	0.317553
254	C	0.022636	0.729961	0.012208
255	C	0.489108	0.711539	0.03222
256	C	0.464161	0.722665	0.025114
257	N	0.474546	0.751276	0.331618
258	H	0.48323	0.690387	0.052331
259	H	0.04065	0.722435	0.019968
260	N	0.005678	0.768343	0.312915
261	N	0.430822	0.704259	0.042273
262	H	0.425003	0.682467	0.057776
263	N	0.063037	0.780708	0.297729
264	H	0.065338	0.802063	0.284493
265	C	0.172816	0.86804	0.288923
266	C	0.137173	0.840101	0.288481
267	C	0.127373	0.803858	0.288765
268	C	0.155316	0.796157	0.288412
269	C	0.191564	0.822603	0.622155
270	C	0.19927	0.858251	0.288477
271	H	0.148815	0.770339	0.290886
272	H	0.225079	0.877557	0.291139
273	H	0.117853	0.846598	0.291013
274	C	0.180721	0.903672	0.295045
275	C	0.219297	0.814704	0.628246
276	C	0.091736	0.776115	0.29479
277	O	0.252971	0.84223	0.297384
278	O	0.153194	0.909811	0.29759
279	O	0.085589	0.74244	0.297236
280	C	0.317193	0.627314	0.378229
281	C	0.354009	0.651841	0.378517
282	C	0.368154	0.688984	0.378222
283	C	0.343617	0.701265	0.378488
284	C	0.306474	0.678271	0.711595
285	C	0.294191	0.641453	0.378537
286	H	0.353312	0.727832	0.375867
287	H	0.267619	0.624582	0.375947
288	H	0.370881	0.642147	0.375874
289	C	0.304531	0.590478	0.372759
290	C	0.282298	0.690925	0.706081
291	C	0.40498	0.713156	0.372666
292	O	0.248069	0.666922	0.363194
293	O	0.328529	0.580252	0.36317
294	O	0.415196	0.747374	0.363047
295	C	0.236168	0.771003	0.65103
296	C	0.265473	0.791768	0.345661
297	C	0.283909	0.776668	0.365655
298	C	0.272781	0.740595	0.358551
299	N	0.244153	0.72236	0.665082
300	H	0.30507	0.791945	0.385744
301	H	0.273003	0.817309	0.353416
302	N	0.227076	0.73642	0.646397
303	N	0.291201	0.725667	0.375684
304	H	0.313006	0.741643	0.391155
305	N	0.214705	0.78141	0.631209
306	H	0.193349	0.762349	0.617987
307	C	0.224447	0.964235	0.651169
308	C	0.203679	0.972796	0.345764
309	C	0.218791	0.506333	0.365758
310	C	0.254863	0.531278	0.35863
311	N	0.273073	0.52089	0.665108
312	H	0.203533	0.512207	0.3859
313	H	0.178167	0.954763	0.353625
314	N	0.259012	0.989747	0.646446
315	N	0.269792	0.564638	0.375728
316	H	0.253821	0.570468	0.391211
317	N	0.214016	0.93237	0.631319
318	H	0.233064	0.930075	0.618057
319	C	0.031169	0.759252	0.650887
320	C	0.022636	0.729961	0.345542
321	C	0.489108	0.711539	0.365555
322	C	0.464161	0.722665	0.358448
323	N	0.474546	0.751276	0.664952
324	H	0.48323	0.690387	0.385665
325	H	0.04065	0.722435	0.3533
326	N	0.005678	0.768343	0.646247
327	N	0.430822	0.704259	0.375608
328	H	0.425003	0.682467	0.391108
329	N	0.063037	0.780708	0.631063
330	H	0.065338	0.802063	0.617828
331	C	0.172816	0.86804	0.622258
332	C	0.137173	0.840101	0.621813
333	C	0.127373	0.803858	0.622099
334	C	0.155316	0.796157	0.621747
335	C	0.191564	0.822603	0.955488
336	C	0.19927	0.858251	0.62181
337	H	0.148815	0.770339	0.624218
338	H	0.225079	0.877557	0.624474
339	H	0.117853	0.846598	0.624347
340	C	0.180721	0.903672	0.628379
341	C	0.219297	0.814704	0.961579
342	C	0.091736	0.776115	0.628124
343	O	0.252971	0.84223	0.630717
344	O	0.153194	0.909811	0.630923
345	O	0.085589	0.74244	0.630571
346	C	0.317193	0.627314	0.711561
347	C	0.354009	0.651841	0.711854
348	C	0.368154	0.688984	0.711555
349	C	0.343617	0.701265	0.71182
350	C	0.306474	0.678271	0.044926
351	C	0.294191	0.641453	0.71187
352	H	0.353312	0.727832	0.7092
353	H	0.267619	0.624582	0.70928
354	H	0.370881	0.642147	0.709207
355	C	0.304531	0.590478	0.706091
356	C	0.282298	0.690925	0.039413
357	C	0.40498	0.713156	0.706002
358	O	0.248069	0.666922	0.696526
359	O	0.328529	0.580252	0.696503
360	O	0.415196	0.747374	0.69638
361	C	0.236168	0.771003	0.984363
362	C	0.265473	0.791768	0.678994
363	C	0.283909	0.776668	0.698987
364	C	0.272781	0.740595	0.691887
365	N	0.244153	0.72236	0.998414
366	H	0.30507	0.791945	0.719081
367	H	0.273003	0.817309	0.686752
368	N	0.227076	0.73642	0.97973
369	N	0.291201	0.725667	0.709017
370	H	0.313006	0.741643	0.724491
371	N	0.214705	0.78141	0.964542
372	H	0.193349	0.762349	0.95132
373	C	0.224447	0.964235	0.984502
374	C	0.203679	0.972796	0.6791
375	C	0.218791	0.506333	0.69909
376	C	0.254863	0.531278	0.691966
377	N	0.273073	0.52089	0.998441
378	H	0.203533	0.512207	0.719233
379	H	0.178167	0.954763	0.686958
380	N	0.259012	0.989747	0.979783
381	N	0.269792	0.564638	0.709061
382	H	0.253821	0.570468	0.724547
383	N	0.214016	0.93237	0.964655
384	H	0.233064	0.930075	0.95139
385	C	0.031169	0.759252	0.98422
386	C	0.022636	0.729961	0.678874
387	C	0.489108	0.711539	0.698888
388	C	0.464161	0.722665	0.69178
389	N	0.474546	0.751276	0.998284
390	H	0.48323	0.690387	0.718998
391	H	0.04065	0.722435	0.686636
392	N	0.005678	0.768343	0.979583
393	N	0.430822	0.704259	0.708941
394	H	0.425003	0.682467	0.724444
395	N	0.063037	0.780708	0.964396
396	H	0.065338	0.802063	0.951161
397	C	0.672816	0.368039	0.955591
398	C	0.637174	0.340103	0.95515
399	C	0.627373	0.303857	0.955432
400	C	0.655316	0.296156	0.95508
401	C	0.691563	0.322602	0.288821
402	C	0.69927	0.35825	0.955143
403	H	0.648814	0.270338	0.957554
404	H	0.725079	0.377556	0.957806
405	H	0.617854	0.346599	0.95768
406	C	0.680721	0.403671	0.961712
407	C	0.719297	0.314703	0.294913
408	C	0.591736	0.276114	0.961456
409	O	0.75297	0.342229	0.96405
410	O	0.653193	0.409812	0.964256
411	O	0.585589	0.242439	0.963904
412	C	0.817192	0.127314	0.044895
413	C	0.854009	0.151841	0.045185
414	C	0.868154	0.188984	0.044888
415	C	0.843617	0.201265	0.045154
416	C	0.806473	0.178271	0.378258
417	C	0.79419	0.141453	0.045202
418	H	0.853311	0.227833	0.042534
419	H	0.767619	0.124583	0.042612
420	H	0.870882	0.142147	0.04254
421	C	0.80453	0.090477	0.039425
422	C	0.782298	0.190926	0.372745
423	C	0.904979	0.213157	0.039333
424	O	0.748067	0.166922	0.029859
425	O	0.828528	0.080251	0.029835
426	O	0.915196	0.247373	0.029713
427	C	0.736169	0.271005	0.317694
428	C	0.765473	0.291767	0.012328
429	C	0.783907	0.276667	0.032319
430	C	0.77278	0.240594	0.025218
431	N	0.744151	0.22236	0.331748
432	H	0.805071	0.291947	0.052411
433	H	0.773004	0.31731	0.020083
434	N	0.727075	0.23642	0.313062
435	N	0.7912	0.225666	0.042351
436	H	0.813006	0.241644	0.057822
437	N	0.714704	0.281409	0.297875
438	H	0.693349	0.26235	0.284652
439	C	0.724446	0.464234	0.317836
440	C	0.703678	0.472795	0.012432
441	C	0.718792	0.006333	0.032423
442	C	0.754862	0.031279	0.025298
443	N	0.773073	0.020891	0.331775
444	H	0.703533	0.012208	0.052567
445	H	0.678164	0.454762	0.02029
446	N	0.759011	0.489746	0.313114
447	N	0.769793	0.064638	0.042393
448	H	0.753821	0.070468	0.057878
449	N	0.714017	0.432372	0.297986
450	H	0.733065	0.430077	0.284723
451	C	0.531169	0.259252	0.317553
452	C	0.522636	0.229961	0.012208
453	C	0.989107	0.211538	0.03222
454	C	0.964161	0.222665	0.025114
455	N	0.974547	0.251277	0.331618
456	H	0.98323	0.190388	0.052331
457	H	0.54065	0.222435	0.019968
458	N	0.505676	0.268344	0.312915
459	N	0.930821	0.204258	0.042273
460	H	0.925002	0.182467	0.057776
461	N	0.563036	0.28071	0.297729
462	H	0.565337	0.302062	0.284493
463	C	0.672816	0.368039	0.288923
464	C	0.637174	0.340103	0.288481
465	C	0.627373	0.303857	0.288765
466	C	0.655316	0.296156	0.288412
467	C	0.691563	0.322602	0.622155
468	C	0.69927	0.35825	0.288477
469	H	0.648814	0.270338	0.290886
470	H	0.725079	0.377556	0.291139
471	H	0.617854	0.346599	0.291013
472	C	0.680721	0.403671	0.295045
473	C	0.719297	0.314703	0.628246
474	C	0.591736	0.276114	0.29479
475	O	0.75297	0.342229	0.297384
476	O	0.653193	0.409812	0.29759
477	O	0.585589	0.242439	0.297236
478	C	0.817192	0.127314	0.378229
479	C	0.854009	0.151841	0.378517
480	C	0.868154	0.188984	0.378222
481	C	0.843617	0.201265	0.378488
482	C	0.806473	0.178271	0.711595
483	C	0.79419	0.141453	0.378537
484	H	0.853311	0.227833	0.375867
485	H	0.767619	0.124583	0.375947
486	H	0.870882	0.142147	0.375874
487	C	0.80453	0.090477	0.372759
488	C	0.782298	0.190926	0.706081
489	C	0.904979	0.213157	0.372666
490	O	0.748067	0.166922	0.363194
491	O	0.828528	0.080251	0.36317
492	O	0.915196	0.247373	0.363047
493	C	0.736169	0.271005	0.65103
494	C	0.765473	0.291767	0.345661
495	C	0.783907	0.276667	0.365655
496	C	0.77278	0.240594	0.358551
497	N	0.744151	0.22236	0.665082
498	H	0.805071	0.291947	0.385744
499	H	0.773004	0.31731	0.353416
500	N	0.727075	0.23642	0.646397
501	N	0.7912	0.225666	0.375684
502	H	0.813006	0.241644	0.391155
503	N	0.714704	0.281409	0.631209
504	H	0.693349	0.26235	0.617987
505	C	0.724446	0.464234	0.651169
506	C	0.703678	0.472795	0.345764
507	C	0.718792	0.006333	0.365758
508	C	0.754862	0.031279	0.35863
509	N	0.773073	0.020891	0.665108
510	H	0.703533	0.012208	0.3859
511	H	0.678164	0.454762	0.353625
512	N	0.759011	0.489746	0.646446
513	N	0.769793	0.064638	0.375728
514	H	0.753821	0.070468	0.391211
515	N	0.714017	0.432372	0.631319
516	H	0.733065	0.430077	0.618057
517	C	0.531169	0.259252	0.650887
518	C	0.522636	0.229961	0.345542
519	C	0.989107	0.211538	0.365555
520	C	0.964161	0.222665	0.358448
521	N	0.974547	0.251277	0.664952
522	H	0.98323	0.190388	0.385665
523	H	0.54065	0.222435	0.3533
524	N	0.505676	0.268344	0.646247
525	N	0.930821	0.204258	0.375608
526	H	0.925002	0.182467	0.391108
527	N	0.563036	0.28071	0.631063
528	H	0.565337	0.302062	0.617828
529	C	0.672816	0.368039	0.622258
530	C	0.637174	0.340103	0.621813
531	C	0.627373	0.303857	0.622099
532	C	0.655316	0.296156	0.621747
533	C	0.691563	0.322602	0.955488
534	C	0.69927	0.35825	0.62181
535	H	0.648814	0.270338	0.624218
536	H	0.725079	0.377556	0.624474
537	H	0.617854	0.346599	0.624347
538	C	0.680721	0.403671	0.628379
539	C	0.719297	0.314703	0.961579
540	C	0.591736	0.276114	0.628124
541	O	0.75297	0.342229	0.630717
542	O	0.653193	0.409812	0.630923
543	O	0.585589	0.242439	0.630571
544	C	0.817192	0.127314	0.711561
545	C	0.854009	0.151841	0.711854
546	C	0.868154	0.188984	0.711555
547	C	0.843617	0.201265	0.71182
548	C	0.806473	0.17827	0.044926
549	C	0.79419	0.141453	0.71187
550	H	0.853311	0.227833	0.7092
551	H	0.767619	0.124583	0.70928
552	H	0.870882	0.142147	0.709207
553	C	0.80453	0.090477	0.706091
554	C	0.782298	0.190926	0.039413
555	C	0.904979	0.213157	0.706002
556	O	0.748067	0.166922	0.696526
557	O	0.828528	0.080251	0.696503
558	O	0.915196	0.247373	0.69638
559	C	0.736169	0.271005	0.984363
560	C	0.765473	0.291767	0.678994
561	C	0.783907	0.276667	0.698987
562	C	0.77278	0.240594	0.691887
563	N	0.744151	0.22236	0.998414
564	H	0.805071	0.291947	0.719081
565	H	0.773004	0.31731	0.686752
566	N	0.727075	0.23642	0.97973
567	N	0.7912	0.225666	0.709017
568	H	0.813006	0.241644	0.724491
569	N	0.714704	0.281409	0.964542
570	H	0.693349	0.26235	0.95132
571	C	0.724446	0.464234	0.984502
572	C	0.703678	0.472795	0.6791
573	C	0.718792	0.006333	0.69909
574	C	0.754862	0.031279	0.691966
575	N	0.773073	0.020891	0.998441
576	H	0.703533	0.012208	0.719233
577	H	0.678164	0.454762	0.686958
578	N	0.759011	0.489746	0.979783
579	N	0.769793	0.064638	0.709061
580	H	0.753821	0.070468	0.724547
581	N	0.714017	0.432372	0.964655
582	H	0.733065	0.430077	0.95139
583	C	0.531169	0.259252	0.98422
584	C	0.522636	0.229961	0.678874
585	C	0.989107	0.211538	0.698888
586	C	0.964161	0.222665	0.69178
587	N	0.974547	0.251277	0.998284
588	H	0.98323	0.190388	0.718998
589	H	0.54065	0.222435	0.686636
590	N	0.505676	0.268344	0.979583
591	N	0.930821	0.204258	0.708941
592	H	0.925002	0.182467	0.724444
593	N	0.563036	0.28071	0.964396
594	H	0.565337	0.302062	0.951161
595	C	0.672816	0.86804	0.955591
596	C	0.637172	0.840101	0.95515
597	C	0.627373	0.803858	0.955432
598	C	0.655316	0.796157	0.95508
599	C	0.691563	0.822603	0.288821
600	C	0.69927	0.858251	0.955143
601	H	0.648815	0.770339	0.957554
602	H	0.725079	0.877557	0.957806
603	H	0.617854	0.846598	0.95768
604	C	0.680722	0.903672	0.961712
605	C	0.719297	0.814704	0.294913
606	C	0.591737	0.776115	0.961456
607	O	0.752971	0.84223	0.96405
608	O	0.653193	0.909811	0.964256
609	O	0.585588	0.74244	0.963904
610	C	0.817192	0.627314	0.044895
611	C	0.854009	0.651841	0.045185
612	C	0.868154	0.688984	0.044888
613	C	0.843617	0.701265	0.045154
614	C	0.806473	0.678271	0.378258
615	C	0.79419	0.641453	0.045202
616	H	0.853313	0.727832	0.042534
617	H	0.767618	0.624582	0.042612
618	H	0.870882	0.642147	0.04254
619	C	0.804531	0.590478	0.039425
620	C	0.782297	0.690925	0.372745
621	C	0.904981	0.713156	0.039333
622	O	0.748067	0.666922	0.029859
623	O	0.828529	0.580252	0.029835
624	O	0.915196	0.747374	0.029713
625	C	0.736168	0.771003	0.317694
626	C	0.765474	0.791768	0.012328
627	C	0.783908	0.776668	0.032319
628	C	0.772781	0.740595	0.025218
629	N	0.744154	0.72236	0.331748
630	H	0.80507	0.791945	0.052411
631	H	0.773003	0.817309	0.020083
632	N	0.727075	0.73642	0.313062
633	N	0.791202	0.725667	0.042351
634	H	0.813005	0.741643	0.057822
635	N	0.714704	0.78141	0.297875
636	H	0.693349	0.762349	0.284652
637	C	0.724447	0.964235	0.317836
638	C	0.703678	0.972796	0.012432
639	C	0.718792	0.506333	0.032423
640	C	0.754862	0.531278	0.025298
641	N	0.773073	0.52089	0.331775
642	H	0.703533	0.512207	0.052567
643	H	0.678166	0.954763	0.02029
644	N	0.759012	0.989747	0.313114
645	N	0.769793	0.564638	0.042393
646	H	0.753821	0.570468	0.057878
647	N	0.714016	0.93237	0.297986
648	H	0.733064	0.930075	0.284723
649	C	0.531169	0.759252	0.317553
650	C	0.522637	0.729961	0.012208
651	C	0.989107	0.711539	0.03222
652	C	0.964161	0.722665	0.025114
653	N	0.974546	0.751276	0.331618
654	H	0.983229	0.690387	0.052331
655	H	0.54065	0.722435	0.019968
656	N	0.505676	0.768343	0.312915
657	N	0.930822	0.704259	0.042273
658	H	0.925001	0.682467	0.057776
659	N	0.563036	0.780708	0.297729
660	H	0.565337	0.802063	0.284493
661	C	0.672816	0.86804	0.288923
662	C	0.637172	0.840101	0.288481
663	C	0.627373	0.803858	0.288765
664	C	0.655316	0.796157	0.288412
665	C	0.691563	0.822603	0.622155
666	C	0.69927	0.858251	0.288477
667	H	0.648815	0.770339	0.290886
668	H	0.725079	0.877557	0.291139
669	H	0.617854	0.846598	0.291013
670	C	0.680722	0.903672	0.295045
671	C	0.719297	0.814704	0.628246
672	C	0.591737	0.776115	0.29479
673	O	0.752971	0.84223	0.297384
674	O	0.653193	0.909811	0.29759
675	O	0.585588	0.74244	0.297236
676	C	0.817192	0.627314	0.378229
677	C	0.854009	0.651841	0.378517
678	C	0.868154	0.688984	0.378222
679	C	0.843617	0.701265	0.378488
680	C	0.806473	0.678271	0.711595
681	C	0.79419	0.641453	0.378537
682	H	0.853313	0.727832	0.375867
683	H	0.767618	0.624582	0.375947
684	H	0.870882	0.642147	0.375874
685	C	0.804531	0.590478	0.372759
686	C	0.782297	0.690925	0.706081
687	C	0.904981	0.713156	0.372666
688	O	0.748067	0.666922	0.363194
689	O	0.828529	0.580252	0.36317
690	O	0.915196	0.747374	0.363047
691	C	0.736168	0.771003	0.65103
692	C	0.765474	0.791768	0.345661
693	C	0.783908	0.776668	0.365655
694	C	0.772781	0.740595	0.358551
695	N	0.744154	0.72236	0.665082
696	H	0.80507	0.791945	0.385744
697	H	0.773003	0.817309	0.353416
698	N	0.727075	0.73642	0.646397
699	N	0.791202	0.725667	0.375684
700	H	0.813005	0.741643	0.391155
701	N	0.714704	0.78141	0.631209
702	H	0.693349	0.762349	0.617987
703	C	0.724447	0.964235	0.651169
704	C	0.703678	0.972796	0.345764
705	C	0.718792	0.506333	0.365758
706	C	0.754862	0.531278	0.35863
707	N	0.773073	0.52089	0.665108
708	H	0.703533	0.512207	0.3859
709	H	0.678166	0.954763	0.353625
710	N	0.759012	0.989747	0.646446
711	N	0.769793	0.564638	0.375728
712	H	0.753821	0.570468	0.391211
713	N	0.714016	0.93237	0.631319
714	H	0.733064	0.930075	0.618057
715	C	0.531169	0.759252	0.650887
716	C	0.522637	0.729961	0.345542
717	C	0.989107	0.711539	0.365555
718	C	0.964161	0.722665	0.358448
719	N	0.974546	0.751276	0.664952
720	H	0.983229	0.690387	0.385665
721	H	0.54065	0.722435	0.3533
722	N	0.505676	0.768343	0.646247
723	N	0.930822	0.704259	0.375608
724	H	0.925001	0.682467	0.391108
725	N	0.563036	0.780708	0.631063
726	H	0.565337	0.802063	0.617828
727	C	0.672816	0.86804	0.622258
728	C	0.637172	0.840101	0.621813
729	C	0.627373	0.803858	0.622099
730	C	0.655316	0.796157	0.621747
731	C	0.691563	0.822603	0.955488
732	C	0.69927	0.858251	0.62181
733	H	0.648815	0.770339	0.624218
734	H	0.725079	0.877557	0.624474
735	H	0.617854	0.846598	0.624347
736	C	0.680722	0.903672	0.628379
737	C	0.719297	0.814704	0.961579
738	C	0.591737	0.776115	0.628124
739	O	0.752971	0.84223	0.630717
740	O	0.653193	0.909811	0.630923
741	O	0.585588	0.74244	0.630571
742	C	0.817192	0.627314	0.711561
743	C	0.854009	0.651841	0.711854
744	C	0.868154	0.688984	0.711555
745	C	0.843617	0.701265	0.71182
746	C	0.806473	0.678271	0.044926
747	C	0.79419	0.641453	0.71187
748	H	0.853313	0.727832	0.7092
749	H	0.767618	0.624582	0.70928
750	H	0.870882	0.642147	0.709207
751	C	0.804531	0.590478	0.706091
752	C	0.782297	0.690925	0.039413
753	C	0.904981	0.713156	0.706002
754	O	0.748067	0.666922	0.696526
755	O	0.828529	0.580252	0.696503
756	O	0.915196	0.747374	0.69638
757	C	0.736168	0.771003	0.984363
758	C	0.765474	0.791768	0.678994
759	C	0.783908	0.776668	0.698987
760	C	0.772781	0.740595	0.691887
761	N	0.744154	0.72236	0.998414
762	H	0.80507	0.791945	0.719081
763	H	0.773003	0.817309	0.686752
764	N	0.727075	0.73642	0.97973
765	N	0.791202	0.725667	0.709017
766	H	0.813005	0.741643	0.724491
767	N	0.714704	0.78141	0.964542
768	H	0.693349	0.762349	0.95132
769	C	0.724447	0.964235	0.984502
770	C	0.703678	0.972796	0.6791
771	C	0.718792	0.506333	0.69909
772	C	0.754862	0.531278	0.691966
773	N	0.773073	0.52089	0.998441
774	H	0.703533	0.512207	0.719233
775	H	0.678166	0.954763	0.686958
776	N	0.759012	0.989747	0.979783
777	N	0.769793	0.564638	0.709061
778	H	0.753821	0.570468	0.724547
779	N	0.714016	0.93237	0.964655
780	H	0.733064	0.930075	0.95139
781	C	0.531169	0.759252	0.98422
782	C	0.522637	0.729961	0.678874
783	C	0.989107	0.711539	0.698888
784	C	0.964161	0.722665	0.69178
785	N	0.974546	0.751276	0.998284
786	H	0.983229	0.690387	0.718998
787	H	0.54065	0.722435	0.686636
788	N	0.505676	0.768343	0.979583
789	N	0.930822	0.704259	0.708941
790	H	0.925001	0.682467	0.724444
791	N	0.563036	0.780708	0.964396
792	H	0.565337	0.802063	0.951161
