data_C180H72N108O108_2018-02-15_10:32:39
#******************************************
#
# CIF file created by Zeo++
# Zeo++ is an open source package to
# analyze microporous materials
#
#*******************************************

_cell_length_a		33.6145   
_cell_length_b		33.2508   
_cell_length_c		30.0536   
_cell_angle_alpha		90   
_cell_angle_beta		90   
_cell_angle_gamma		120.078   

_symmetry_space_group_name_H-M		'P1'
_symmetry_Int_Tables_number		1
_symmetry_cell_setting		Monoclinic

loop_
_symmetry_equiv_pos_as_xyz
'+x,+y,+z'

loop_
_atom_site_label
_atom_site_type_symbol
_atom_site_fract_x
_atom_site_fract_y
_atom_site_fract_z
1	N	0.021845	0.045717	0.989689
2	C	0.040647	0.017818	0.989832
3	N	0.011914	0.971093	0.9906
4	N	0.021845	0.045717	0.323022
5	C	0.040647	0.017818	0.323166
6	N	0.011914	0.971093	0.323934
7	N	0.021845	0.045717	0.656354
8	C	0.040647	0.017818	0.6565
9	N	0.011914	0.971093	0.657266
10	N	0.08662	0.035192	0.995039
11	N	0.08662	0.035192	0.328374
12	N	0.08662	0.035192	0.661708
13	O	0.110585	0.106557	0.291199
14	O	0.110585	0.106557	0.624531
15	O	0.110585	0.106557	0.957865
16	C	0.975642	0.027941	0.988254
17	C	0.965497	0.952006	0.989226
18	N	0.948032	0.980998	0.98911
19	H	0.096044	0.014765	0.009067
20	N	0.936561	0.905515	0.994094
21	H	0.906644	0.895874	0.007567
22	N	0.958118	0.056825	0.992194
23	H	0.977596	0.086704	0.006734
24	C	0.380786	0.17398	0.015817
25	N	0.408359	0.15618	0.005631
26	C	0.453344	0.184256	0.994909
27	N	0.469752	0.230757	0.992866
28	C	0.443193	0.249842	0.001948
29	N	0.398798	0.220857	0.01368
30	N	0.482683	0.168498	0.984777
31	H	0.510763	0.190694	0.969132
32	N	0.460666	0.296753	0.000474
33	H	0.447519	0.309708	0.020984
34	N	0.334753	0.1447	0.020978
35	H	0.32183	0.11468	0.005951
36	C	0.810767	0.205364	0.016033
37	N	0.827851	0.251124	0.006451
38	C	0.7997	0.268204	0.996543
39	N	0.753777	0.237866	0.994663
40	C	0.735362	0.191828	0.003188
41	N	0.764429	0.17623	0.014129
42	N	0.814938	0.313637	0.986697
43	H	0.792651	0.319742	0.971681
44	N	0.689005	0.162245	0.001641
45	H	0.676243	0.135988	0.022167
46	N	0.840298	0.188772	0.020302
47	H	0.870403	0.207156	0.006278
48	C	0.780206	0.608831	0.016791
49	N	0.735056	0.580899	0.006292
50	C	0.717984	0.535541	0.995229
51	N	0.747697	0.519157	0.993179
52	C	0.79312	0.546082	0.002548
53	N	0.808693	0.590828	0.014602
54	N	0.673107	0.505836	0.984751
55	H	0.667117	0.477522	0.969079
56	N	0.822175	0.528618	0.001025
57	H	0.848131	0.541946	0.021578
58	N	0.797153	0.655294	0.022217
59	H	0.780356	0.668313	0.007214
60	C	0.258191	0.133837	0.025938
61	C	0.222095	0.11867	0.057382
62	C	0.176383	0.099145	0.041878
63	C	0.166224	0.095972	0.329278
64	C	0.202317	0.111736	0.297802
65	H	0.150385	0.088408	0.064745
66	C	0.247853	0.129989	0.313305
67	H	0.273902	0.14207	0.290371
68	N	0.192305	0.108213	0.251677
69	N	0.23217	0.122521	0.103494
70	O	0.204292	0.082483	0.232279
71	O	0.213031	0.083393	0.12208
72	O	0.219528	0.147792	0.122753
73	O	0.212026	0.147399	0.233209
74	C	0.120053	0.078452	0.316125
75	C	0.304935	0.156589	0.039003
76	O	0.320149	0.195655	0.063706
77	C	0.853889	0.124104	0.023389
78	C	0.870117	0.103617	0.054448
79	C	0.891918	0.079503	0.038462
80	C	0.896373	0.074117	0.325731
81	C	0.879531	0.093972	0.294638
82	H	0.903236	0.064359	0.061041
83	C	0.859025	0.119288	0.310649
84	H	0.846281	0.13299	0.287985
85	N	0.884182	0.088964	0.248403
86	N	0.864952	0.108183	0.100654
87	O	0.90835	0.127711	0.229908
88	O	0.903236	0.129282	0.119947
89	O	0.8412	0.069208	0.11887
90	O	0.845723	0.068316	0.229385
91	C	0.915507	0.046759	0.312029
92	C	0.829402	0.146396	0.036883
93	O	0.790213	0.120418	0.060239
94	O	0.888724	0.008918	0.286778
95	C	0.863139	0.732612	0.026739
96	C	0.884203	0.769365	0.057925
97	C	0.910567	0.815456	0.042074
98	C	0.917576	0.825316	0.329403
99	C	0.897143	0.78857	0.298189
100	H	0.925936	0.841946	0.064742
101	C	0.869701	0.742656	0.31403
102	H	0.855578	0.716117	0.291304
103	N	0.903716	0.798336	0.252003
104	N	0.877952	0.759557	0.104105
105	O	0.866234	0.785908	0.232505
106	O	0.858327	0.778946	0.122401
107	O	0.915652	0.772625	0.123412
108	O	0.922854	0.778373	0.233868
109	C	0.946349	0.871887	0.315937
110	C	0.838803	0.685492	0.040201
111	O	0.862421	0.670245	0.064722
112	O	0.984171	0.881576	0.291847
113	C	0.611499	0.14456	0.313244
114	C	0.5805	0.132293	0.276913
115	C	0.534873	0.121976	0.284869
116	C	0.519473	0.123876	0.994753
117	C	0.549378	0.133317	0.031437
118	H	0.513694	0.116232	0.258162
119	C	0.594825	0.142958	0.023518
120	H	0.61708	0.153501	0.049917
121	N	0.534878	0.137049	0.074777
122	N	0.595757	0.131961	0.232989
123	O	0.558577	0.17741	0.090248
124	O	0.573457	0.092314	0.215696
125	O	0.592354	0.160632	0.208309
126	O	0.536979	0.108865	0.101185
127	C	0.479618	0.128022	0.998792
128	C	0.659882	0.166539	0.306369
129	O	0.677432	0.199137	0.273837
130	O	0.446918	0.100033	0.028247
131	C	0.839449	0.46778	0.312983
132	C	0.851338	0.448352	0.276795
133	C	0.861566	0.412635	0.285026
134	C	0.859981	0.395644	0.995066
135	C	0.850887	0.416761	0.031598
136	H	0.867004	0.396655	0.258444
137	C	0.841374	0.453006	0.023389
138	H	0.83101	0.465087	0.049716
139	N	0.847441	0.398737	0.075075
140	N	0.851403	0.463665	0.232735
141	O	0.807615	0.382427	0.090746
142	O	0.890512	0.480667	0.215235
143	O	0.822877	0.43125	0.208372
144	O	0.875499	0.429338	0.101202
145	C	0.855577	0.351127	0.999448
146	C	0.817745	0.494659	0.305952
147	O	0.785529	0.479756	0.273395
148	O	0.884079	0.34644	0.028076
149	C	0.520895	0.375149	0.312407
150	C	0.539778	0.406578	0.276139
151	C	0.574907	0.452846	0.284235
152	C	0.592034	0.468444	0.994171
153	C	0.571412	0.438062	0.030768
154	H	0.590532	0.47429	0.257568
155	C	0.535644	0.392029	0.022738
156	H	0.523911	0.369484	0.049105
157	N	0.589473	0.452717	0.074163
158	N	0.524478	0.391133	0.232147
159	O	0.60587	0.42897	0.089649
160	O	0.507343	0.413372	0.214729
161	O	0.556525	0.39497	0.207642
162	O	0.559311	0.450299	0.100507
163	C	0.635981	0.508839	0.99832
164	C	0.494386	0.32624	0.305472
165	O	0.509032	0.308545	0.272891
166	O	0.640547	0.541661	0.027821
167	C	0.975642	0.027941	0.321587
168	C	0.965497	0.952006	0.322561
169	N	0.948032	0.980998	0.322442
170	H	0.096044	0.014765	0.342398
171	N	0.936561	0.905515	0.327426
172	H	0.906644	0.895874	0.340901
173	N	0.958118	0.056825	0.325529
174	H	0.977596	0.086704	0.340066
175	C	0.380786	0.17398	0.34915
176	N	0.408359	0.15618	0.338964
177	C	0.453344	0.184256	0.328243
178	N	0.469752	0.230757	0.326201
179	C	0.443193	0.249842	0.335281
180	N	0.398798	0.220857	0.347013
181	N	0.482683	0.168498	0.318109
182	H	0.510763	0.190694	0.302464
183	N	0.460666	0.296753	0.333807
184	H	0.447519	0.309708	0.354317
185	N	0.334753	0.1447	0.35431
186	H	0.32183	0.11468	0.339284
187	C	0.810767	0.205364	0.349366
188	N	0.827851	0.251124	0.339783
189	C	0.7997	0.268204	0.329878
190	N	0.753777	0.237866	0.327998
191	C	0.735362	0.191828	0.336522
192	N	0.764429	0.17623	0.347463
193	N	0.814938	0.313637	0.320032
194	H	0.792651	0.319742	0.305015
195	N	0.689005	0.162245	0.334975
196	H	0.676243	0.135988	0.355502
197	N	0.840298	0.188772	0.353635
198	H	0.870403	0.207156	0.339613
199	C	0.780206	0.608831	0.350125
200	N	0.735056	0.580899	0.339627
201	C	0.717984	0.535541	0.328561
202	N	0.747697	0.519157	0.326513
203	C	0.79312	0.546082	0.33588
204	N	0.808693	0.590828	0.347935
205	N	0.673107	0.505836	0.318083
206	H	0.667117	0.477522	0.302414
207	N	0.822175	0.528618	0.334359
208	H	0.848131	0.541946	0.354913
209	N	0.797153	0.655294	0.355551
210	H	0.780356	0.668313	0.340548
211	C	0.258191	0.133837	0.359271
212	C	0.222095	0.11867	0.390715
213	C	0.176383	0.099145	0.37521
214	C	0.166224	0.095972	0.66261
215	C	0.202317	0.111736	0.631136
216	H	0.150385	0.088408	0.398079
217	C	0.247853	0.129989	0.646638
218	H	0.273902	0.14207	0.623706
219	N	0.192305	0.108213	0.585012
220	N	0.23217	0.122521	0.436826
221	O	0.204292	0.082483	0.565613
222	O	0.213031	0.083393	0.455413
223	O	0.219528	0.147792	0.456085
224	O	0.212026	0.147399	0.566541
225	C	0.120053	0.078452	0.64946
226	C	0.304935	0.156589	0.372335
227	O	0.320149	0.195655	0.397041
228	C	0.853889	0.124104	0.356723
229	C	0.870117	0.103617	0.387781
230	C	0.891918	0.079503	0.371796
231	C	0.896373	0.074117	0.659063
232	C	0.879531	0.093972	0.627971
233	H	0.903236	0.064359	0.394372
234	C	0.859025	0.119288	0.643983
235	H	0.846281	0.13299	0.62132
236	N	0.884182	0.088964	0.581737
237	N	0.864952	0.108183	0.433988
238	O	0.90835	0.127711	0.56324
239	O	0.903236	0.129282	0.45328
240	O	0.8412	0.069208	0.452202
241	O	0.845723	0.068316	0.562718
242	C	0.915507	0.046759	0.64536
243	C	0.829402	0.146396	0.370215
244	O	0.790213	0.120418	0.393574
245	O	0.888724	0.008918	0.620112
246	C	0.863139	0.732612	0.360073
247	C	0.884203	0.769365	0.391258
248	C	0.910567	0.815456	0.375406
249	C	0.917576	0.825316	0.662736
250	C	0.897143	0.78857	0.631522
251	H	0.925936	0.841946	0.398076
252	C	0.869701	0.742656	0.647363
253	H	0.855578	0.716117	0.624637
254	N	0.903716	0.798336	0.585338
255	N	0.877952	0.759557	0.437439
256	O	0.866234	0.785908	0.565839
257	O	0.858327	0.778946	0.455736
258	O	0.915652	0.772625	0.456744
259	O	0.922854	0.778373	0.5672
260	C	0.946349	0.871887	0.64927
261	C	0.838803	0.685492	0.373533
262	O	0.862421	0.670245	0.398056
263	O	0.984171	0.881576	0.62518
264	C	0.611499	0.14456	0.646578
265	C	0.5805	0.132293	0.610246
266	C	0.534873	0.121976	0.618202
267	C	0.519473	0.123876	0.328086
268	C	0.549378	0.133317	0.364772
269	H	0.513694	0.116232	0.591497
270	C	0.594825	0.142958	0.356852
271	H	0.61708	0.153501	0.383252
272	N	0.534878	0.137049	0.408111
273	N	0.595757	0.131961	0.566322
274	O	0.558577	0.17741	0.423583
275	O	0.573457	0.092314	0.549029
276	O	0.592354	0.160632	0.541642
277	O	0.536979	0.108865	0.434517
278	C	0.479618	0.128022	0.332127
279	C	0.659882	0.166539	0.639704
280	O	0.677432	0.199137	0.607172
281	O	0.446918	0.100033	0.361581
282	C	0.839449	0.46778	0.646315
283	C	0.851338	0.448352	0.610127
284	C	0.861566	0.412635	0.618359
285	C	0.859981	0.395644	0.328398
286	C	0.850887	0.416761	0.364931
287	H	0.867004	0.396655	0.591776
288	C	0.841374	0.453006	0.356723
289	H	0.83101	0.465087	0.383049
290	N	0.847441	0.398737	0.408407
291	N	0.851403	0.463665	0.566069
292	O	0.807615	0.382427	0.424079
293	O	0.890512	0.480667	0.54857
294	O	0.822877	0.43125	0.541706
295	O	0.875499	0.429338	0.434534
296	C	0.855577	0.351127	0.332782
297	C	0.817745	0.494659	0.639285
298	O	0.785529	0.479756	0.606726
299	O	0.884079	0.34644	0.361408
300	C	0.520895	0.375149	0.64574
301	C	0.539778	0.406578	0.609471
302	C	0.574907	0.452846	0.617567
303	C	0.592034	0.468444	0.327506
304	C	0.571412	0.438062	0.364103
305	H	0.590532	0.47429	0.590901
306	C	0.535644	0.392029	0.356071
307	H	0.523911	0.369484	0.382437
308	N	0.589473	0.452717	0.407495
309	N	0.524478	0.391133	0.56548
310	O	0.60587	0.42897	0.422981
311	O	0.507343	0.413372	0.548061
312	O	0.556525	0.39497	0.540977
313	O	0.559311	0.450299	0.433842
314	C	0.635981	0.508839	0.331654
315	C	0.494386	0.32624	0.638805
316	O	0.509032	0.308545	0.606224
317	O	0.640547	0.541661	0.361155
318	C	0.975642	0.027941	0.65492
319	C	0.965497	0.952006	0.655895
320	N	0.948032	0.980998	0.655775
321	H	0.096044	0.014765	0.675733
322	N	0.936561	0.905515	0.66076
323	H	0.906644	0.895874	0.674232
324	N	0.958118	0.056825	0.658863
325	H	0.977596	0.086704	0.6734
326	C	0.380786	0.17398	0.682484
327	N	0.408359	0.15618	0.672299
328	C	0.453344	0.184256	0.661575
329	N	0.469752	0.230757	0.659535
330	C	0.443193	0.249842	0.668616
331	N	0.398798	0.220857	0.680348
332	N	0.482683	0.168498	0.651443
333	H	0.510763	0.190694	0.635797
334	N	0.460666	0.296753	0.667141
335	H	0.447519	0.309708	0.687652
336	N	0.334753	0.1447	0.687645
337	H	0.32183	0.11468	0.672618
338	C	0.810767	0.205364	0.6827
339	N	0.827851	0.251124	0.673117
340	C	0.7997	0.268204	0.663212
341	N	0.753777	0.237866	0.661332
342	C	0.735362	0.191828	0.669853
343	N	0.764429	0.17623	0.680794
344	N	0.814938	0.313637	0.653366
345	H	0.792651	0.319742	0.63835
346	N	0.689005	0.162245	0.668306
347	H	0.676243	0.135988	0.688833
348	N	0.840298	0.188772	0.686969
349	H	0.870403	0.207156	0.672944
350	C	0.780206	0.608831	0.683459
351	N	0.735056	0.580899	0.672958
352	C	0.717984	0.535541	0.661894
353	N	0.747697	0.519157	0.659848
354	C	0.79312	0.546082	0.669214
355	N	0.808693	0.590828	0.68127
356	N	0.673107	0.505836	0.651416
357	H	0.667117	0.477522	0.635748
358	N	0.822175	0.528618	0.667691
359	H	0.848131	0.541946	0.688244
360	N	0.797153	0.655294	0.688883
361	H	0.780356	0.668313	0.673879
362	C	0.258191	0.133837	0.692606
363	C	0.222095	0.11867	0.72405
364	C	0.176383	0.099145	0.708544
365	C	0.166224	0.095972	0.995944
366	C	0.202317	0.111736	0.964467
367	H	0.150385	0.088408	0.73141
368	C	0.247853	0.129989	0.979973
369	H	0.273902	0.14207	0.957037
370	N	0.192305	0.108213	0.918343
371	N	0.23217	0.122521	0.770161
372	O	0.204292	0.082483	0.898944
373	O	0.213031	0.083393	0.788748
374	O	0.219528	0.147792	0.78942
375	O	0.212026	0.147399	0.899876
376	C	0.120053	0.078452	0.982791
377	C	0.304935	0.156589	0.705669
378	O	0.320149	0.195655	0.730372
379	C	0.853889	0.124104	0.690054
380	C	0.870117	0.103617	0.721115
381	C	0.891918	0.079503	0.70513
382	C	0.896373	0.074117	0.992397
383	C	0.879531	0.093972	0.961306
384	H	0.903236	0.064359	0.727707
385	C	0.859025	0.119288	0.977314
386	H	0.846281	0.13299	0.954651
387	N	0.884182	0.088964	0.915069
388	N	0.864952	0.108183	0.767319
389	O	0.90835	0.127711	0.896575
390	O	0.903236	0.129282	0.786615
391	O	0.8412	0.069208	0.785537
392	O	0.845723	0.068316	0.896053
393	C	0.915507	0.046759	0.978695
394	C	0.829402	0.146396	0.70355
395	O	0.790213	0.120418	0.726905
396	O	0.888724	0.008918	0.953443
397	C	0.863139	0.732612	0.693405
398	C	0.884203	0.769365	0.724592
399	C	0.910567	0.815456	0.708741
400	C	0.917576	0.825316	0.996071
401	C	0.897143	0.78857	0.964856
402	H	0.925936	0.841946	0.73141
403	C	0.869701	0.742656	0.980698
404	H	0.855578	0.716117	0.957969
405	N	0.903716	0.798336	0.918669
406	N	0.877952	0.759557	0.770773
407	O	0.866234	0.785908	0.89917
408	O	0.858327	0.778946	0.789067
409	O	0.915652	0.772625	0.790079
410	O	0.922854	0.778373	0.900535
411	C	0.946349	0.871887	0.982605
412	C	0.838803	0.685492	0.706867
413	O	0.862421	0.670245	0.73139
414	O	0.984171	0.881576	0.958514
415	C	0.611499	0.14456	0.979909
416	C	0.5805	0.132293	0.943581
417	C	0.534873	0.121976	0.951537
418	C	0.519473	0.123876	0.661418
419	C	0.549378	0.133317	0.698103
420	H	0.513694	0.116232	0.924828
421	C	0.594825	0.142958	0.690184
422	H	0.61708	0.153501	0.716583
423	N	0.534878	0.137049	0.741445
424	N	0.595757	0.131961	0.899656
425	O	0.558577	0.17741	0.756914
426	O	0.573457	0.092314	0.882364
427	O	0.592354	0.160632	0.874974
428	O	0.536979	0.108865	0.767852
429	C	0.479618	0.128022	0.665461
430	C	0.659882	0.166539	0.973035
431	O	0.677432	0.199137	0.940503
432	O	0.446918	0.100033	0.694912
433	C	0.839449	0.46778	0.97965
434	C	0.851338	0.448352	0.943461
435	C	0.861566	0.412635	0.951693
436	C	0.859981	0.395644	0.661731
437	C	0.850887	0.416761	0.698263
438	H	0.867004	0.396655	0.925111
439	C	0.841374	0.453006	0.690054
440	H	0.83101	0.465087	0.716384
441	N	0.847441	0.398737	0.741742
442	N	0.851403	0.463665	0.899403
443	O	0.807615	0.382427	0.757414
444	O	0.890512	0.480667	0.881901
445	O	0.822877	0.43125	0.87504
446	O	0.875499	0.429338	0.767868
447	C	0.855577	0.351127	0.666113
448	C	0.817745	0.494659	0.972619
449	O	0.785529	0.479756	0.940061
450	O	0.884079	0.34644	0.694742
451	C	0.520895	0.375149	0.979074
452	C	0.539778	0.406578	0.942806
453	C	0.574907	0.452846	0.950901
454	C	0.592034	0.468444	0.660839
455	C	0.571412	0.438062	0.697434
456	H	0.590532	0.47429	0.924236
457	C	0.535644	0.392029	0.689405
458	H	0.523911	0.369484	0.715771
459	N	0.589473	0.452717	0.74083
460	N	0.524478	0.391133	0.898814
461	O	0.60587	0.42897	0.756316
462	O	0.507343	0.413372	0.881395
463	O	0.556525	0.39497	0.874308
464	O	0.559311	0.450299	0.767173
465	C	0.635981	0.508839	0.664989
466	C	0.494386	0.32624	0.97214
467	O	0.509032	0.308545	0.939558
468	O	0.640547	0.541661	0.694486
