data_C180H144N54_2018-02-15_10:42:09
#******************************************
#
# CIF file created by Zeo++
# Zeo++ is an open source package to
# analyze microporous materials
#
#*******************************************

_cell_length_a		29.5228   
_cell_length_b		29.523   
_cell_length_c		29.8754   
_cell_angle_alpha		90   
_cell_angle_beta		90   
_cell_angle_gamma		120   

_symmetry_space_group_name_H-M		'P1'
_symmetry_Int_Tables_number		1
_symmetry_cell_setting		Monoclinic

loop_
_symmetry_equiv_pos_as_xyz
'+x,+y,+z'

loop_
_atom_site_label
_atom_site_type_symbol
_atom_site_fract_x
_atom_site_fract_y
_atom_site_fract_z
1	C	0.031152	0.516098	0.044767
2	C	0.031151	0.516098	0.294423
3	H	0.04367	0.522356	0.113293
4	H	0.043656	0.522348	0.225891
5	C	0.031152	0.516098	0.3781
6	C	0.031151	0.516098	0.627756
7	H	0.04367	0.522356	0.446628
8	H	0.043656	0.522348	0.559225
9	C	0.031152	0.516098	0.711434
10	C	0.031151	0.516098	0.961091
11	H	0.04367	0.522356	0.779962
12	H	0.043656	0.522348	0.892559
13	C	0.058425	0.529733	0.002928
14	N	0.059315	0.530178	0.083971
15	N	0.059302	0.530171	0.25521
16	C	0.058425	0.529733	0.336263
17	N	0.059315	0.530178	0.417306
18	N	0.059302	0.530171	0.588544
19	C	0.058425	0.529733	0.669597
20	N	0.059315	0.530178	0.75064
21	N	0.059302	0.530171	0.921878
22	C	0.363496	0.722821	0.002097
23	N	0.388808	0.694926	0.002112
24	C	0.363498	0.641718	0.002098
25	N	0.310288	0.616405	0.002112
26	C	0.282391	0.641718	0.002096
27	N	0.310289	0.694926	0.002111
28	C	0.391465	0.613745	0.002305
29	C	0.446943	0.64038	0.002458
30	C	0.474558	0.612932	0.002746
31	C	0.447473	0.557741	0.002898
32	C	0.392278	0.530652	0.002746
33	C	0.364832	0.558269	0.002458
34	C	0.391467	0.778762	0.002304
35	C	0.446943	0.807604	0.002457
36	C	0.474559	0.862665	0.002747
37	C	0.447473	0.890775	0.002899
38	C	0.392279	0.862665	0.002746
39	C	0.364832	0.807604	0.002457
40	C	0.226451	0.613745	0.002304
41	C	0.197608	0.64038	0.002457
42	C	0.142544	0.612932	0.002747
43	C	0.114438	0.557741	0.0029
44	C	0.142546	0.530656	0.002747
45	C	0.197607	0.558269	0.002457
46	H	0.514591	0.882139	0.002798
47	H	0.468175	0.788857	0.002349
48	H	0.371719	0.882139	0.002798
49	H	0.324851	0.788853	0.002349
50	H	0.216357	0.680361	0.002348
51	H	0.123072	0.633493	0.002798
52	H	0.216357	0.537039	0.002348
53	H	0.123071	0.490621	0.002798
54	H	0.324852	0.537039	0.00235
55	H	0.371719	0.490621	0.002798
56	H	0.514592	0.633493	0.002798
57	H	0.468175	0.680361	0.00235
58	C	0.642757	0.281347	0.002096
59	N	0.617448	0.309244	0.002111
60	C	0.642759	0.362452	0.002097
61	N	0.695966	0.387763	0.002112
62	C	0.723866	0.362452	0.002098
63	N	0.695968	0.309244	0.002111
64	C	0.61479	0.390422	0.002304
65	C	0.559312	0.363789	0.002457
66	C	0.531697	0.391237	0.002746
67	C	0.558782	0.446428	0.0029
68	C	0.613975	0.473513	0.002747
69	C	0.641425	0.4459	0.002457
70	C	0.614788	0.225408	0.002303
71	C	0.559313	0.196564	0.002456
72	C	0.531697	0.141501	0.002746
73	C	0.558781	0.113395	0.002899
74	C	0.613976	0.141502	0.002746
75	C	0.641422	0.196564	0.002456
76	C	0.779804	0.390422	0.002305
77	C	0.808648	0.363789	0.002458
78	C	0.86371	0.391237	0.002746
79	C	0.891817	0.446428	0.002898
80	C	0.863711	0.473513	0.002747
81	C	0.808648	0.4459	0.002458
82	H	0.491665	0.122028	0.002798
83	H	0.53808	0.215313	0.002348
84	H	0.634534	0.122029	0.002798
85	H	0.681404	0.215313	0.002348
86	H	0.789898	0.323808	0.00235
87	H	0.883183	0.370676	0.002798
88	H	0.789899	0.46713	0.00235
89	H	0.883183	0.513548	0.002797
90	H	0.681403	0.46713	0.002349
91	H	0.634535	0.513548	0.002798
92	H	0.491663	0.370676	0.002798
93	H	0.538079	0.323808	0.002349
94	C	0.530777	0.474436	0.002928
95	C	0.517139	0.488071	0.044767
96	C	0.489115	0.516098	0.044766
97	C	0.475478	0.529733	0.002927
98	C	0.489115	0.516094	0.294423
99	C	0.517138	0.488071	0.294423
100	N	0.475032	0.530178	0.08397
101	H	0.482855	0.522356	0.113292
102	H	0.456081	0.549132	0.084624
103	N	0.531222	0.47399	0.083971
104	H	0.550172	0.455037	0.084625
105	H	0.523398	0.481813	0.113293
106	N	0.475039	0.530171	0.255209
107	H	0.456089	0.54912	0.254536
108	H	0.482864	0.522348	0.22589
109	N	0.531215	0.473994	0.25521
110	H	0.550166	0.455044	0.254537
111	H	0.523392	0.48182	0.225891
112	C	0.530778	0.057382	0.002928
113	C	0.517141	0.030109	0.044767
114	C	0.489116	0.97406	0.044767
115	C	0.47548	0.946788	0.002928
116	C	0.489116	0.97406	0.294423
117	C	0.51714	0.030107	0.294424
118	N	0.475034	0.945896	0.083971
119	H	0.482856	0.961541	0.113293
120	H	0.456082	0.907992	0.084624
121	N	0.531223	0.058273	0.083971
122	H	0.550175	0.096177	0.084625
123	H	0.5234	0.042627	0.113293
124	N	0.47504	0.945908	0.255209
125	H	0.45609	0.908008	0.254536
126	H	0.482864	0.961556	0.225891
127	N	0.531213	0.05826	0.25521
128	H	0.550164	0.096161	0.254537
129	H	0.523389	0.042612	0.225891
130	C	0.94783	0.474436	0.002927
131	C	0.975102	0.488071	0.044766
132	C	0.975108	0.488074	0.294423
133	H	0.09722	0.549132	0.084625
134	N	0.94694	0.47399	0.08397
135	H	0.909034	0.455037	0.084624
136	H	0.962584	0.481813	0.113293
137	H	0.097205	0.549124	0.254537
138	N	0.946954	0.473998	0.255209
139	H	0.909053	0.455048	0.254536
140	H	0.962602	0.48182	0.22589
141	C	0.363496	0.722821	0.335429
142	N	0.388808	0.694926	0.335446
143	C	0.363498	0.641718	0.335433
144	N	0.310288	0.616405	0.335446
145	C	0.282391	0.641718	0.335429
146	N	0.310289	0.694926	0.335446
147	C	0.391465	0.613745	0.335637
148	C	0.446943	0.64038	0.335791
149	C	0.474558	0.612932	0.336079
150	C	0.447473	0.557741	0.336233
151	C	0.392278	0.530652	0.336079
152	C	0.364832	0.558269	0.335791
153	C	0.391467	0.778762	0.335637
154	C	0.446943	0.807604	0.335791
155	C	0.474559	0.862665	0.336082
156	C	0.447473	0.890775	0.336233
157	C	0.392279	0.862665	0.336079
158	C	0.364832	0.807604	0.335791
159	C	0.226451	0.613745	0.335637
160	C	0.197608	0.64038	0.335791
161	C	0.142544	0.612932	0.336082
162	C	0.114438	0.557741	0.336233
163	C	0.142546	0.530656	0.336082
164	C	0.197607	0.558269	0.335791
165	H	0.514591	0.882139	0.336132
166	H	0.468175	0.788857	0.335684
167	H	0.371719	0.882139	0.336132
168	H	0.324851	0.788853	0.335684
169	H	0.216357	0.680361	0.33568
170	H	0.123072	0.633493	0.336132
171	H	0.216357	0.537039	0.33568
172	H	0.123071	0.490621	0.336132
173	H	0.324852	0.537039	0.335684
174	H	0.371719	0.490621	0.336132
175	H	0.514592	0.633493	0.336132
176	H	0.468175	0.680361	0.335684
177	C	0.642757	0.281347	0.335429
178	N	0.617448	0.309244	0.335443
179	C	0.642759	0.362452	0.335429
180	N	0.695966	0.387763	0.335446
181	C	0.723866	0.362452	0.335433
182	N	0.695968	0.309244	0.335446
183	C	0.61479	0.390422	0.335637
184	C	0.559312	0.363789	0.335791
185	C	0.531697	0.391237	0.336079
186	C	0.558782	0.446428	0.336233
187	C	0.613975	0.473513	0.336082
188	C	0.641425	0.4459	0.335791
189	C	0.614788	0.225408	0.335637
190	C	0.559313	0.196564	0.335791
191	C	0.531697	0.141501	0.336079
192	C	0.558781	0.113395	0.336233
193	C	0.613976	0.141502	0.336079
194	C	0.641422	0.196564	0.335791
195	C	0.779804	0.390422	0.335637
196	C	0.808648	0.363789	0.335791
197	C	0.86371	0.391237	0.336079
198	C	0.891817	0.446428	0.336233
199	C	0.863711	0.473513	0.336082
200	C	0.808648	0.4459	0.335791
201	H	0.491665	0.122028	0.336132
202	H	0.53808	0.215313	0.335684
203	H	0.634534	0.122029	0.336132
204	H	0.681404	0.215313	0.33568
205	H	0.789898	0.323808	0.335684
206	H	0.883183	0.370676	0.336132
207	H	0.789899	0.46713	0.335684
208	H	0.883183	0.513548	0.336132
209	H	0.681403	0.46713	0.335684
210	H	0.634535	0.513548	0.336132
211	H	0.491663	0.370676	0.336132
212	H	0.538079	0.323808	0.335684
213	C	0.530777	0.474436	0.336263
214	C	0.517139	0.488071	0.3781
215	C	0.489115	0.516098	0.3781
216	C	0.475478	0.529733	0.33626
217	C	0.489115	0.516094	0.627756
218	C	0.517138	0.488071	0.627756
219	N	0.475032	0.530178	0.417303
220	H	0.482855	0.522356	0.446628
221	H	0.456081	0.549132	0.417959
222	N	0.531222	0.47399	0.417306
223	H	0.550172	0.455037	0.417959
224	H	0.523398	0.481813	0.446628
225	N	0.475039	0.530171	0.588544
226	H	0.456089	0.54912	0.587871
227	H	0.482864	0.522348	0.559225
228	N	0.531215	0.473994	0.588544
229	H	0.550166	0.455044	0.587871
230	H	0.523392	0.48182	0.559225
231	C	0.530778	0.057382	0.336263
232	C	0.517141	0.030109	0.3781
233	C	0.489116	0.97406	0.3781
234	C	0.47548	0.946788	0.336263
235	C	0.489116	0.97406	0.627756
236	C	0.51714	0.030107	0.627756
237	N	0.475034	0.945896	0.417306
238	H	0.482856	0.961541	0.446628
239	H	0.456082	0.907992	0.417959
240	N	0.531223	0.058273	0.417306
241	H	0.550175	0.096177	0.417959
242	H	0.5234	0.042627	0.446628
243	N	0.47504	0.945908	0.588544
244	H	0.45609	0.908008	0.587871
245	H	0.482864	0.961556	0.559225
246	N	0.531213	0.05826	0.588544
247	H	0.550164	0.096161	0.587871
248	H	0.523389	0.042612	0.559225
249	C	0.94783	0.474436	0.33626
250	C	0.975102	0.488071	0.3781
251	C	0.975108	0.488074	0.627756
252	H	0.09722	0.549132	0.417959
253	N	0.94694	0.47399	0.417303
254	H	0.909034	0.455037	0.417959
255	H	0.962584	0.481813	0.446628
256	H	0.097205	0.549124	0.587871
257	N	0.946954	0.473998	0.588544
258	H	0.909053	0.455048	0.587871
259	H	0.962602	0.48182	0.559225
260	C	0.363496	0.722821	0.668763
261	N	0.388808	0.694926	0.66878
262	C	0.363498	0.641718	0.668767
263	N	0.310288	0.616405	0.66878
264	C	0.282391	0.641718	0.668763
265	N	0.310289	0.694926	0.668777
266	C	0.391465	0.613745	0.668971
267	C	0.446943	0.64038	0.669125
268	C	0.474558	0.612932	0.669413
269	C	0.447473	0.557741	0.669567
270	C	0.392278	0.530652	0.669413
271	C	0.364832	0.558269	0.669125
272	C	0.391467	0.778762	0.668971
273	C	0.446943	0.807604	0.669125
274	C	0.474559	0.862665	0.669413
275	C	0.447473	0.890775	0.669567
276	C	0.392279	0.862665	0.669413
277	C	0.364832	0.807604	0.669125
278	C	0.226451	0.613745	0.668971
279	C	0.197608	0.64038	0.669125
280	C	0.142544	0.612932	0.669413
281	C	0.114438	0.557741	0.669567
282	C	0.142546	0.530656	0.669413
283	C	0.197607	0.558269	0.669125
284	H	0.514591	0.882139	0.669466
285	H	0.468175	0.788857	0.669018
286	H	0.371719	0.882139	0.669466
287	H	0.324851	0.788853	0.669018
288	H	0.216357	0.680361	0.669014
289	H	0.123072	0.633493	0.669466
290	H	0.216357	0.537039	0.669014
291	H	0.123071	0.490621	0.669466
292	H	0.324852	0.537039	0.669018
293	H	0.371719	0.490621	0.669466
294	H	0.514592	0.633493	0.669466
295	H	0.468175	0.680361	0.669018
296	C	0.642757	0.281347	0.668763
297	N	0.617448	0.309244	0.668777
298	C	0.642759	0.362452	0.668763
299	N	0.695966	0.387763	0.66878
300	C	0.723866	0.362452	0.668767
301	N	0.695968	0.309244	0.66878
302	C	0.61479	0.390422	0.668971
303	C	0.559312	0.363789	0.669125
304	C	0.531697	0.391237	0.669413
305	C	0.558782	0.446428	0.669567
306	C	0.613975	0.473513	0.669413
307	C	0.641425	0.4459	0.669125
308	C	0.614788	0.225408	0.668971
309	C	0.559313	0.196564	0.669125
310	C	0.531697	0.141501	0.669413
311	C	0.558781	0.113395	0.669567
312	C	0.613976	0.141502	0.669413
313	C	0.641422	0.196564	0.669125
314	C	0.779804	0.390422	0.668971
315	C	0.808648	0.363789	0.669125
316	C	0.86371	0.391237	0.669413
317	C	0.891817	0.446428	0.669567
318	C	0.863711	0.473513	0.669416
319	C	0.808648	0.4459	0.669125
320	H	0.491665	0.122028	0.669466
321	H	0.53808	0.215313	0.669014
322	H	0.634534	0.122029	0.669466
323	H	0.681404	0.215313	0.669014
324	H	0.789898	0.323808	0.669018
325	H	0.883183	0.370676	0.669466
326	H	0.789899	0.46713	0.669018
327	H	0.883183	0.513548	0.669466
328	H	0.681403	0.46713	0.669018
329	H	0.634535	0.513548	0.669466
330	H	0.491663	0.370676	0.669466
331	H	0.538079	0.323808	0.669018
332	C	0.530777	0.474436	0.669597
333	C	0.517139	0.488071	0.711434
334	C	0.489115	0.516098	0.711434
335	C	0.475478	0.529733	0.669594
336	C	0.489115	0.516094	0.961091
337	C	0.517138	0.488071	0.961091
338	N	0.475032	0.530178	0.750637
339	H	0.482855	0.522356	0.779958
340	H	0.456081	0.549132	0.751293
341	N	0.531222	0.47399	0.750637
342	H	0.550172	0.455037	0.751293
343	H	0.523398	0.481813	0.779962
344	N	0.475039	0.530171	0.921878
345	H	0.456089	0.54912	0.921202
346	H	0.482864	0.522348	0.892559
347	N	0.531215	0.473994	0.921878
348	H	0.550166	0.455044	0.921205
349	H	0.523392	0.48182	0.892559
350	C	0.530778	0.057382	0.669597
351	C	0.517141	0.030109	0.711434
352	C	0.489116	0.97406	0.711434
353	C	0.47548	0.946788	0.669597
354	C	0.489116	0.97406	0.961091
355	C	0.51714	0.030107	0.961091
356	N	0.475034	0.945896	0.750637
357	H	0.482856	0.961541	0.779962
358	H	0.456082	0.907992	0.751293
359	N	0.531223	0.058273	0.75064
360	H	0.550175	0.096177	0.751293
361	H	0.5234	0.042627	0.779962
362	N	0.47504	0.945908	0.921878
363	H	0.45609	0.908008	0.921205
364	H	0.482864	0.961556	0.892559
365	N	0.531213	0.05826	0.921878
366	H	0.550164	0.096161	0.921205
367	H	0.523389	0.042612	0.892559
368	C	0.94783	0.474436	0.669594
369	C	0.975102	0.488071	0.711434
370	C	0.975108	0.488074	0.961091
371	H	0.09722	0.549132	0.751293
372	N	0.94694	0.47399	0.750637
373	H	0.909034	0.455037	0.751293
374	H	0.962584	0.481813	0.779958
375	H	0.097205	0.549124	0.921205
376	N	0.946954	0.473998	0.921878
377	H	0.909053	0.455048	0.921202
378	H	0.962602	0.48182	0.892559
