data_C216H144N18_2018-02-15_10:41:59
#******************************************
#
# CIF file created by Zeo++
# Zeo++ is an open source package to
# analyze microporous materials
#
#*******************************************

_cell_length_a		37.3473   
_cell_length_b		37.3219   
_cell_length_c		29.7918   
_cell_angle_alpha		90   
_cell_angle_beta		90   
_cell_angle_gamma		120.037   

_symmetry_space_group_name_H-M		'P1'
_symmetry_Int_Tables_number		1
_symmetry_cell_setting		Monoclinic

loop_
_symmetry_equiv_pos_as_xyz
'+x,+y,+z'

loop_
_atom_site_label
_atom_site_type_symbol
_atom_site_fract_x
_atom_site_fract_y
_atom_site_fract_z
1	C	0.458877	0.915359	0.002064
2	C	0.476692	0.890001	0.342242
3	C	0.452133	0.846559	0.343833
4	C	0.40875	0.826868	0.005217
5	C	0.390714	0.851861	0.998274
6	C	0.415405	0.895272	0.99628
7	C	0.383705	0.784163	0.00872
8	C	0.388729	0.756868	0.317209
9	C	0.36361	0.713982	0.32001
10	C	0.319912	0.69458	0.319792
11	C	0.294571	0.650967	0.319964
12	C	0.313951	0.626649	0.319465
13	C	0.357527	0.644944	0.319709
14	C	0.381862	0.688671	0.319506
15	C	0.375264	0.619834	0.316799
16	C	0.407773	0.625024	0.008045
17	C	0.425359	0.599951	0.337844
18	C	0.468332	0.617955	0.997163
19	C	0.401677	0.556593	0.343608
20	C	0.420511	0.532021	0.342081
21	C	0.463631	0.549796	0.001503
22	C	0.486995	0.593248	0.995213
23	C	0.2517	0.633254	0.317254
24	C	0.224303	0.60023	0.007864
25	C	0.181663	0.582888	0.337858
26	C	0.16222	0.606519	0.012091
27	C	0.156476	0.540198	0.328855
28	C	0.113114	0.52177	0.327123
29	C	0.093211	0.545048	0.001832
30	C	0.118831	0.587915	0.010663
31	H	0.507982	0.90283	0.345706
32	H	0.466209	0.829443	0.349432
33	H	0.400943	0.912153	0.991769
34	H	0.359338	0.83867	0.994693
35	H	0.413452	0.702348	0.318082
36	H	0.306283	0.71254	0.318596
37	H	0.296018	0.59504	0.31802
38	H	0.179491	0.63746	0.019196
39	H	0.486515	0.649321	0.993246
40	H	0.518309	0.607705	0.990443
41	H	0.402034	0.500746	0.345877
42	H	0.370529	0.542544	0.349519
43	H	0.106283	0.606436	0.015736
44	H	0.096135	0.490637	0.321074
45	H	0.16949	0.522049	0.323586
46	H	0.420855	0.648572	0.029514
47	H	0.362439	0.596194	0.295381
48	H	0.360263	0.773643	0.030315
49	H	0.412237	0.767728	0.295634
50	H	0.234662	0.586627	0.02872
51	H	0.240891	0.646557	0.296504
52	C	0.551711	0.091358	0.000651
53	C	0.533759	0.11639	0.325661
54	C	0.557256	0.159873	0.328255
55	C	0.599891	0.180202	0.00554
56	C	0.617943	0.155457	0.014252
57	C	0.59433	0.111986	0.011855
58	C	0.623755	0.223135	0.009567
59	C	0.622532	0.250265	0.314053
60	C	0.647128	0.293001	0.317848
61	C	0.6908	0.312418	0.317734
62	C	0.715884	0.356033	0.318004
63	C	0.696485	0.380308	0.317553
64	C	0.652905	0.361756	0.317712
65	C	0.628609	0.318051	0.317419
66	C	0.634825	0.386371	0.313867
67	C	0.606184	0.384873	0.00911
68	C	0.58718	0.408754	0.338385
69	C	0.544279	0.390565	0.013238
70	C	0.609638	0.451531	0.328325
71	C	0.589708	0.475044	0.325744
72	C	0.546627	0.456951	0.000201
73	C	0.524476	0.414192	0.010868
74	C	0.75862	0.374124	0.314388
75	C	0.785776	0.403511	0.009025
76	C	0.828659	0.422367	0.338425
77	C	0.848864	0.3995	0.996908
78	C	0.85346	0.465561	0.34486
79	C	0.896898	0.485249	0.342621
80	C	0.917351	0.462652	0.000439
81	C	0.892307	0.419309	0.994394
82	H	0.50285	0.103288	0.319135
83	H	0.542645	0.176536	0.323104
84	H	0.608952	0.095522	0.01818
85	H	0.648636	0.168902	0.022447
86	H	0.59701	0.304297	0.315826
87	H	0.704515	0.294528	0.316372
88	H	0.714356	0.411933	0.316016
89	H	0.832133	0.368002	0.993431
90	H	0.526921	0.359766	0.021031
91	H	0.493315	0.399485	0.016789
92	H	0.607588	0.506041	0.319595
93	H	0.640973	0.466223	0.323563
94	H	0.905409	0.40124	0.989564
95	H	0.913476	0.516623	0.34723
96	H	0.840083	0.483209	0.351271
97	H	0.596928	0.364588	0.034264
98	H	0.644082	0.406247	0.288368
99	H	0.643814	0.234207	0.034911
100	H	0.602892	0.239607	0.288358
101	H	0.774789	0.4134	0.033592
102	H	0.769293	0.364248	0.289526
103	C	0.539869	0.517505	0.307388
104	N	0.51838	0.537957	0.309409
105	C	0.483407	0.525404	0.000829
106	C	0.469417	0.488424	0.025588
107	N	0.491086	0.468173	0.023789
108	C	0.526079	0.480668	0.999087
109	H	0.56532	0.529038	0.28719
110	H	0.444134	0.477068	0.046043
111	C	0.491205	0.023941	0.307789
112	N	0.47074	0.981965	0.309846
113	C	0.483268	0.959553	0.001319
114	C	0.520214	0.982565	0.026082
115	N	0.540447	0.024519	0.024267
116	C	0.527994	0.047038	0.999526
117	H	0.479691	0.037843	0.287545
118	H	0.531535	0.968619	0.046558
119	C	0.98442	0.469015	0.307859
120	N	0.026372	0.490405	0.309882
121	C	0.048997	0.525429	0.001238
122	C	0.026112	0.539567	0.025936
123	N	0.984177	0.518075	0.024088
124	C	0.961575	0.483061	0.999429
125	H	0.970325	0.443481	0.287756
126	H	0.040091	0.564853	0.046392
127	C	0.458877	0.915359	0.335398
128	C	0.476692	0.890001	0.675575
129	C	0.452133	0.846559	0.677166
130	C	0.40875	0.826868	0.338549
131	C	0.390714	0.851861	0.331608
132	C	0.415405	0.895272	0.329612
133	C	0.383705	0.784163	0.342054
134	C	0.388729	0.756868	0.650541
135	C	0.36361	0.713982	0.653344
136	C	0.319912	0.69458	0.653126
137	C	0.294571	0.650967	0.653297
138	C	0.313951	0.626649	0.652797
139	C	0.357527	0.644944	0.653042
140	C	0.381862	0.688671	0.65284
141	C	0.375264	0.619834	0.650132
142	C	0.407773	0.625024	0.341379
143	C	0.425359	0.599951	0.671178
144	C	0.468332	0.617955	0.330495
145	C	0.401677	0.556593	0.676941
146	C	0.420511	0.532021	0.675414
147	C	0.463631	0.549796	0.334835
148	C	0.486995	0.593248	0.328548
149	C	0.2517	0.633254	0.650588
150	C	0.224303	0.60023	0.341198
151	C	0.181663	0.582888	0.671191
152	C	0.16222	0.606519	0.345424
153	C	0.156476	0.540198	0.662189
154	C	0.113114	0.52177	0.660457
155	C	0.093211	0.545048	0.335165
156	C	0.118831	0.587915	0.343997
157	H	0.507982	0.90283	0.679039
158	H	0.466209	0.829443	0.682765
159	H	0.400943	0.912153	0.325102
160	H	0.359338	0.83867	0.328027
161	H	0.413452	0.702348	0.651414
162	H	0.306283	0.71254	0.651931
163	H	0.296018	0.59504	0.651353
164	H	0.179491	0.63746	0.35253
165	H	0.486515	0.649321	0.326581
166	H	0.518309	0.607705	0.323775
167	H	0.402034	0.500746	0.67921
168	H	0.370529	0.542544	0.682855
169	H	0.106283	0.606436	0.349069
170	H	0.096135	0.490637	0.654408
171	H	0.16949	0.522049	0.656919
172	H	0.420855	0.648572	0.362848
173	H	0.362439	0.596194	0.628716
174	H	0.360263	0.773643	0.36365
175	H	0.412237	0.767728	0.628968
176	H	0.234662	0.586627	0.362052
177	H	0.240891	0.646557	0.629837
178	C	0.551711	0.091358	0.333985
179	C	0.533759	0.11639	0.658993
180	C	0.557256	0.159873	0.661588
181	C	0.599891	0.180202	0.338875
182	C	0.617943	0.155457	0.347585
183	C	0.59433	0.111986	0.345189
184	C	0.623755	0.223135	0.3429
185	C	0.622532	0.250265	0.647386
186	C	0.647128	0.293001	0.651182
187	C	0.6908	0.312418	0.651068
188	C	0.715884	0.356033	0.651337
189	C	0.696485	0.380308	0.650887
190	C	0.652905	0.361756	0.651045
191	C	0.628609	0.318051	0.650753
192	C	0.634825	0.386371	0.647201
193	C	0.606184	0.384873	0.342443
194	C	0.58718	0.408754	0.671718
195	C	0.544279	0.390565	0.346572
196	C	0.609638	0.451531	0.661658
197	C	0.589708	0.475044	0.659077
198	C	0.546627	0.456951	0.333535
199	C	0.524476	0.414192	0.344202
200	C	0.75862	0.374124	0.647722
201	C	0.785776	0.403511	0.342359
202	C	0.828659	0.422367	0.671758
203	C	0.848864	0.3995	0.330243
204	C	0.85346	0.465561	0.678196
205	C	0.896898	0.485249	0.675954
206	C	0.917351	0.462652	0.333774
207	C	0.892307	0.419309	0.327726
208	H	0.50285	0.103288	0.652468
209	H	0.542645	0.176536	0.656439
210	H	0.608952	0.095522	0.351513
211	H	0.648636	0.168902	0.355782
212	H	0.59701	0.304297	0.649158
213	H	0.704515	0.294528	0.649705
214	H	0.714356	0.411933	0.64935
215	H	0.832133	0.368002	0.326763
216	H	0.526921	0.359766	0.354366
217	H	0.493315	0.399485	0.350123
218	H	0.607588	0.506041	0.652928
219	H	0.640973	0.466223	0.656895
220	H	0.905409	0.40124	0.322895
221	H	0.913476	0.516623	0.680563
222	H	0.840083	0.483209	0.684604
223	H	0.596928	0.364588	0.367598
224	H	0.644082	0.406247	0.621701
225	H	0.643814	0.234207	0.368245
226	H	0.602892	0.239607	0.621691
227	H	0.774789	0.4134	0.366926
228	H	0.769293	0.364248	0.622859
229	C	0.539869	0.517505	0.640723
230	N	0.51838	0.537957	0.642744
231	C	0.483407	0.525404	0.334163
232	C	0.469417	0.488424	0.358921
233	N	0.491086	0.468173	0.357122
234	C	0.526079	0.480668	0.33242
235	H	0.56532	0.529038	0.620523
236	H	0.444134	0.477068	0.379376
237	C	0.491205	0.023941	0.641122
238	N	0.47074	0.981965	0.64318
239	C	0.483268	0.959553	0.334651
240	C	0.520214	0.982565	0.359414
241	N	0.540447	0.024519	0.357602
242	C	0.527994	0.047038	0.332861
243	H	0.479691	0.037843	0.620879
244	H	0.531535	0.968619	0.379893
245	C	0.98442	0.469015	0.641193
246	N	0.026372	0.490405	0.643217
247	C	0.048997	0.525429	0.334572
248	C	0.026112	0.539567	0.35927
249	N	0.984177	0.518075	0.35742
250	C	0.961575	0.483061	0.332761
251	H	0.970325	0.443481	0.62109
252	H	0.040091	0.564853	0.379725
253	C	0.458877	0.915359	0.668731
254	C	0.476692	0.890001	0.008909
255	C	0.452133	0.846559	0.010498
256	C	0.40875	0.826868	0.671886
257	C	0.390714	0.851861	0.664941
258	C	0.415405	0.895272	0.662947
259	C	0.383705	0.784163	0.675387
260	C	0.388729	0.756868	0.983878
261	C	0.36361	0.713982	0.986677
262	C	0.319912	0.69458	0.986459
263	C	0.294571	0.650967	0.98663
264	C	0.313951	0.626649	0.986133
265	C	0.357527	0.644944	0.986375
266	C	0.381862	0.688671	0.986174
267	C	0.375264	0.619834	0.983465
268	C	0.407773	0.625024	0.674712
269	C	0.425359	0.599951	0.004511
270	C	0.468332	0.617955	0.66383
271	C	0.401677	0.556593	0.010276
272	C	0.420511	0.532021	0.008746
273	C	0.463631	0.549796	0.66817
274	C	0.486995	0.593248	0.66188
275	C	0.2517	0.633254	0.983921
276	C	0.224303	0.60023	0.674531
277	C	0.181663	0.582888	0.004523
278	C	0.16222	0.606519	0.678757
279	C	0.156476	0.540198	0.995522
280	C	0.113114	0.52177	0.99379
281	C	0.093211	0.545048	0.668499
282	C	0.118831	0.587915	0.67733
283	H	0.507982	0.90283	0.012371
284	H	0.466209	0.829443	0.016099
285	H	0.400943	0.912153	0.658436
286	H	0.359338	0.83867	0.66136
287	H	0.413452	0.702348	0.98475
288	H	0.306283	0.71254	0.985264
289	H	0.296018	0.59504	0.984687
290	H	0.179491	0.63746	0.685863
291	H	0.486515	0.649321	0.659913
292	H	0.518309	0.607705	0.65711
293	H	0.402034	0.500746	0.012542
294	H	0.370529	0.542544	0.016187
295	H	0.106283	0.606436	0.682402
296	H	0.096135	0.490637	0.987741
297	H	0.16949	0.522049	0.990252
298	H	0.420855	0.648572	0.696181
299	H	0.362439	0.596194	0.96205
300	H	0.360263	0.773643	0.696983
301	H	0.412237	0.767728	0.962301
302	H	0.234662	0.586627	0.695386
303	H	0.240891	0.646557	0.963171
304	C	0.551711	0.091358	0.667318
305	C	0.533759	0.11639	0.992326
306	C	0.557256	0.159873	0.994921
307	C	0.599891	0.180202	0.672208
308	C	0.617943	0.155457	0.680919
309	C	0.59433	0.111986	0.678522
310	C	0.623755	0.223135	0.676233
311	C	0.622532	0.250265	0.980719
312	C	0.647128	0.293001	0.984515
313	C	0.6908	0.312418	0.984401
314	C	0.715884	0.356033	0.98467
315	C	0.696485	0.380308	0.98422
316	C	0.652905	0.361756	0.984378
317	C	0.628609	0.318051	0.984086
318	C	0.634825	0.386371	0.980534
319	C	0.606184	0.384873	0.675776
320	C	0.58718	0.408754	0.005051
321	C	0.544279	0.390565	0.679905
322	C	0.609638	0.451531	0.994991
323	C	0.589708	0.475044	0.99241
324	C	0.546627	0.456951	0.666868
325	C	0.524476	0.414192	0.677535
326	C	0.75862	0.374124	0.981055
327	C	0.785776	0.403511	0.675692
328	C	0.828659	0.422367	0.005093
329	C	0.848864	0.3995	0.663575
330	C	0.85346	0.465561	0.011528
331	C	0.896898	0.485249	0.009286
332	C	0.917351	0.462652	0.667106
333	C	0.892307	0.419309	0.661061
334	H	0.50285	0.103288	0.985801
335	H	0.542645	0.176536	0.989772
336	H	0.608952	0.095522	0.684846
337	H	0.648636	0.168902	0.689115
338	H	0.59701	0.304297	0.982491
339	H	0.704515	0.294528	0.983038
340	H	0.714356	0.411933	0.982683
341	H	0.832133	0.368002	0.660097
342	H	0.526921	0.359766	0.687699
343	H	0.493315	0.399485	0.683456
344	H	0.607588	0.506041	0.986261
345	H	0.640973	0.466223	0.990228
346	H	0.905409	0.40124	0.656227
347	H	0.913476	0.516623	0.013895
348	H	0.840083	0.483209	0.017938
349	H	0.596928	0.364588	0.700931
350	H	0.644082	0.406247	0.955034
351	H	0.643814	0.234207	0.701579
352	H	0.602892	0.239607	0.955024
353	H	0.774789	0.4134	0.700259
354	H	0.769293	0.364248	0.956192
355	C	0.539869	0.517505	0.974056
356	N	0.51838	0.537957	0.976077
357	C	0.483407	0.525404	0.667495
358	C	0.469417	0.488424	0.692254
359	N	0.491086	0.468173	0.690455
360	C	0.526079	0.480668	0.665753
361	H	0.56532	0.529038	0.953856
362	H	0.444134	0.477068	0.712709
363	C	0.491205	0.023941	0.974456
364	N	0.47074	0.981965	0.976513
365	C	0.483268	0.959553	0.667986
366	C	0.520214	0.982565	0.692751
367	N	0.540447	0.024519	0.690935
368	C	0.527994	0.047038	0.666193
369	H	0.479691	0.037843	0.954212
370	H	0.531535	0.968619	0.713226
371	C	0.98442	0.469015	0.974526
372	N	0.026372	0.490405	0.97655
373	C	0.048997	0.525429	0.667905
374	C	0.026112	0.539567	0.692603
375	N	0.984177	0.518075	0.690757
376	C	0.961575	0.483061	0.666092
377	H	0.970325	0.443481	0.954423
378	H	0.040091	0.564853	0.713058
