data_C171H90N36O9_2018-02-15_10:42:25
#******************************************
#
# CIF file created by Zeo++
# Zeo++ is an open source package to
# analyze microporous materials
#
#*******************************************

_cell_length_a		29.4301   
_cell_length_b		29.4301   
_cell_length_c		29.9724   
_cell_angle_alpha		90   
_cell_angle_beta		90   
_cell_angle_gamma		120   

_symmetry_space_group_name_H-M		'P1'
_symmetry_Int_Tables_number		1
_symmetry_cell_setting		Monoclinic

loop_
_symmetry_equiv_pos_as_xyz
'+x,+y,+z'

loop_
_atom_site_label
_atom_site_type_symbol
_atom_site_fract_x
_atom_site_fract_y
_atom_site_fract_z
1	C	0.36303	0.722959	0.997563
2	N	0.388223	0.694863	0.99731
3	C	0.362401	0.641557	0.998941
4	N	0.30907	0.616258	0.00072
5	C	0.281668	0.642248	0.000613
6	N	0.309743	0.695549	0.999145
7	C	0.390418	0.613681	0.998878
8	C	0.44351	0.638183	0.985062
9	C	0.471323	0.610813	0.984955
10	C	0.447417	0.558033	0.999351
11	C	0.394585	0.533668	0.013729
12	C	0.366437	0.560736	0.012967
13	C	0.391393	0.778811	0.997066
14	C	0.444661	0.807048	0.983724
15	C	0.472868	0.862252	0.983834
16	C	0.449184	0.891381	0.998117
17	C	0.396119	0.863229	0.011879
18	C	0.367602	0.808061	0.010852
19	C	0.22579	0.614956	0.001301
20	C	0.197502	0.639937	0.987931
21	C	0.142315	0.612814	0.987647
22	C	0.11316	0.559838	0.001476
23	C	0.141325	0.535073	0.015629
24	C	0.196538	0.561878	0.014982
25	H	0.511513	0.880877	0.974625
26	H	0.463637	0.787729	0.973461
27	H	0.37733	0.88269	0.022304
28	H	0.329395	0.789526	0.021329
29	H	0.216757	0.678184	0.977545
30	H	0.123688	0.632729	0.978129
31	H	0.215126	0.542198	0.025299
32	H	0.121836	0.496696	0.025711
33	H	0.328325	0.541421	0.023708
34	H	0.375651	0.495464	0.024281
35	H	0.509817	0.630489	0.975289
36	H	0.462649	0.676355	0.974472
37	C	0.64202	0.281217	0.000132
38	N	0.616494	0.309017	0.000339
39	C	0.641778	0.362344	0.999648
40	N	0.695139	0.387952	0.999051
41	C	0.723123	0.362575	0.998951
42	N	0.695333	0.309229	0.999595
43	C	0.613485	0.390032	0.000621
44	C	0.558318	0.363238	0.006565
45	C	0.530472	0.390533	0.008456
46	C	0.556752	0.445769	0.004623
47	C	0.611569	0.472649	0.997526
48	C	0.639443	0.445333	0.995955
49	C	0.614151	0.225255	0.001299
50	C	0.558963	0.196496	0.006961
51	C	0.531512	0.141349	0.008731
52	C	0.55824	0.112807	0.005088
53	C	0.613105	0.141139	0.998357
54	C	0.640572	0.196323	0.996886
55	C	0.77911	0.390545	0.999608
56	C	0.807773	0.364013	0.005273
57	C	0.862902	0.391619	0.007407
58	C	0.891541	0.446915	0.004104
59	C	0.863343	0.473536	0.997073
60	C	0.808161	0.445902	0.995278
61	H	0.491571	0.122188	0.012188
62	H	0.537846	0.215336	0.010034
63	H	0.633783	0.121814	0.995288
64	H	0.680337	0.215064	0.992365
65	H	0.788869	0.324057	0.008366
66	H	0.881975	0.370786	0.011116
67	H	0.789486	0.467003	0.990844
68	H	0.882741	0.513575	0.994337
69	H	0.67917	0.466615	0.991264
70	H	0.631944	0.512646	0.99435
71	H	0.490576	0.369486	0.012193
72	H	0.537509	0.323298	0.009869
73	C	0.528814	0.47363	0.006074
74	N	0.538055	0.508369	0.305861
75	C	0.513696	0.536901	0.301924
76	C	0.475592	0.53036	0.000452
77	N	0.466789	0.495872	0.034057
78	C	0.491268	0.467258	0.039078
79	H	0.522349	0.561423	0.275207
80	C	0.480093	0.435701	0.076555
81	O	0.447756	0.433033	0.103617
82	H	0.509822	0.433335	0.089588
83	C	0.530683	0.057021	0.006258
84	N	0.540373	0.031915	0.30598
85	C	0.516212	0.979064	0.301703
86	C	0.47768	0.947177	0.999802
87	N	0.468492	0.972469	0.033507
88	C	0.492886	0.025476	0.038943
89	H	0.525051	0.963468	0.274898
90	C	0.481235	0.045287	0.076463
91	O	0.449087	0.015622	0.103657
92	H	0.510029	0.078058	0.089561
93	C	0.947298	0.475105	0.00627
94	N	0.973259	0.510248	0.306425
95	C	0.026215	0.539043	0.303195
96	C	0.057312	0.532248	0.002041
97	N	0.031163	0.497375	0.035286
98	C	0.978011	0.4686	0.039641
99	H	0.04249	0.563801	0.276672
100	C	0.957208	0.436733	0.076822
101	O	0.986149	0.43399	0.104636
102	H	0.924093	0.432609	0.089253
103	C	0.36303	0.722959	0.330896
104	N	0.388223	0.694863	0.330642
105	C	0.362401	0.641557	0.332273
106	N	0.30907	0.616258	0.334054
107	C	0.281668	0.642248	0.333947
108	N	0.309743	0.695549	0.332477
109	C	0.390418	0.613681	0.332209
110	C	0.44351	0.638183	0.318392
111	C	0.471323	0.610813	0.318288
112	C	0.447417	0.558033	0.332684
113	C	0.394585	0.533668	0.347062
114	C	0.366437	0.560736	0.346301
115	C	0.391393	0.778811	0.330397
116	C	0.444661	0.807048	0.317057
117	C	0.472868	0.862252	0.317168
118	C	0.449184	0.891381	0.331449
119	C	0.396119	0.863229	0.345214
120	C	0.367602	0.808061	0.344186
121	C	0.22579	0.614956	0.334634
122	C	0.197502	0.639937	0.321262
123	C	0.142315	0.612814	0.320979
124	C	0.11316	0.559838	0.334811
125	C	0.141325	0.535073	0.348964
126	C	0.196538	0.561878	0.348317
127	H	0.511513	0.880877	0.307958
128	H	0.463637	0.787729	0.306794
129	H	0.37733	0.88269	0.355637
130	H	0.329395	0.789526	0.354662
131	H	0.216757	0.678184	0.310879
132	H	0.123688	0.632729	0.311462
133	H	0.215126	0.542198	0.358633
134	H	0.121836	0.496696	0.359043
135	H	0.328325	0.541421	0.357041
136	H	0.375651	0.495464	0.357615
137	H	0.509817	0.630489	0.308622
138	H	0.462649	0.676355	0.307806
139	C	0.64202	0.281217	0.333466
140	N	0.616494	0.309017	0.33367
141	C	0.641778	0.362344	0.332981
142	N	0.695139	0.387952	0.332382
143	C	0.723123	0.362575	0.332282
144	N	0.695333	0.309229	0.332927
145	C	0.613485	0.390032	0.333953
146	C	0.558318	0.363238	0.339899
147	C	0.530472	0.390533	0.341791
148	C	0.556752	0.445769	0.337957
149	C	0.611569	0.472649	0.33086
150	C	0.639443	0.445333	0.329288
151	C	0.614151	0.225255	0.334634
152	C	0.558963	0.196496	0.340296
153	C	0.531512	0.141349	0.342064
154	C	0.55824	0.112807	0.338421
155	C	0.613105	0.141139	0.331691
156	C	0.640572	0.196323	0.330219
157	C	0.77911	0.390545	0.33294
158	C	0.807773	0.364013	0.338608
159	C	0.862902	0.391619	0.34074
160	C	0.891541	0.446915	0.337437
161	C	0.863343	0.473536	0.330407
162	C	0.808161	0.445902	0.32861
163	H	0.491571	0.122188	0.345521
164	H	0.537846	0.215336	0.343369
165	H	0.633783	0.121814	0.32862
166	H	0.680337	0.215064	0.325698
167	H	0.788869	0.324057	0.341701
168	H	0.881975	0.370786	0.34445
169	H	0.789486	0.467003	0.324174
170	H	0.882741	0.513575	0.327668
171	H	0.67917	0.466615	0.324596
172	H	0.631944	0.512646	0.327683
173	H	0.490576	0.369486	0.345527
174	H	0.537509	0.323298	0.343202
175	C	0.528814	0.47363	0.339408
176	N	0.538055	0.508369	0.639194
177	C	0.513696	0.536901	0.635257
178	C	0.475592	0.53036	0.333783
179	N	0.466789	0.495872	0.367391
180	C	0.491268	0.467258	0.372412
181	H	0.522349	0.561423	0.608539
182	C	0.480093	0.435701	0.40989
183	O	0.447756	0.433033	0.436951
184	H	0.509822	0.433335	0.422922
185	C	0.530683	0.057021	0.339592
186	N	0.540373	0.031915	0.639314
187	C	0.516212	0.979064	0.635037
188	C	0.47768	0.947177	0.333136
189	N	0.468492	0.972469	0.36684
190	C	0.492886	0.025476	0.372275
191	H	0.525051	0.963468	0.608232
192	C	0.481235	0.045287	0.409796
193	O	0.449087	0.015622	0.436991
194	H	0.510029	0.078058	0.422895
195	C	0.947298	0.475105	0.339602
196	N	0.973259	0.510248	0.639758
197	C	0.026215	0.539043	0.636528
198	C	0.057312	0.532248	0.335375
199	N	0.031163	0.497375	0.368619
200	C	0.978011	0.4686	0.372976
201	H	0.04249	0.563801	0.610007
202	C	0.957208	0.436733	0.410157
203	O	0.986149	0.43399	0.437969
204	H	0.924093	0.432609	0.422588
205	C	0.36303	0.722959	0.66423
206	N	0.388223	0.694863	0.663977
207	C	0.362401	0.641557	0.665605
208	N	0.30907	0.616258	0.667386
209	C	0.281668	0.642248	0.66728
210	N	0.309743	0.695549	0.665812
211	C	0.390418	0.613681	0.665541
212	C	0.44351	0.638183	0.651725
213	C	0.471323	0.610813	0.651622
214	C	0.447417	0.558033	0.666019
215	C	0.394585	0.533668	0.680395
216	C	0.366437	0.560736	0.679634
217	C	0.391393	0.778811	0.66373
218	C	0.444661	0.807048	0.650391
219	C	0.472868	0.862252	0.650501
220	C	0.449184	0.891381	0.664784
221	C	0.396119	0.863229	0.678547
222	C	0.367602	0.808061	0.677519
223	C	0.22579	0.614956	0.667967
224	C	0.197502	0.639937	0.654595
225	C	0.142315	0.612814	0.654314
226	C	0.11316	0.559838	0.668144
227	C	0.141325	0.535073	0.682297
228	C	0.196538	0.561878	0.68165
229	H	0.511513	0.880877	0.641292
230	H	0.463637	0.787729	0.640128
231	H	0.37733	0.88269	0.688973
232	H	0.329395	0.789526	0.687995
233	H	0.216757	0.678184	0.644212
234	H	0.123688	0.632729	0.644796
235	H	0.215126	0.542198	0.691966
236	H	0.121836	0.496696	0.692379
237	H	0.328325	0.541421	0.690374
238	H	0.375651	0.495464	0.690948
239	H	0.509817	0.630489	0.641956
240	H	0.462649	0.676355	0.641139
241	C	0.64202	0.281217	0.666799
242	N	0.616494	0.309017	0.667003
243	C	0.641778	0.362344	0.666315
244	N	0.695139	0.387952	0.665715
245	C	0.723123	0.362575	0.665615
246	N	0.695333	0.309229	0.666262
247	C	0.613485	0.390032	0.66729
248	C	0.558318	0.363238	0.673232
249	C	0.530472	0.390533	0.675124
250	C	0.556752	0.445769	0.67129
251	C	0.611569	0.472649	0.664194
252	C	0.639443	0.445333	0.662622
253	C	0.614151	0.225255	0.667967
254	C	0.558963	0.196496	0.673629
255	C	0.531512	0.141349	0.675397
256	C	0.55824	0.112807	0.671754
257	C	0.613105	0.141139	0.665024
258	C	0.640572	0.196323	0.663553
259	C	0.77911	0.390545	0.666275
260	C	0.807773	0.364013	0.671941
261	C	0.862902	0.391619	0.674076
262	C	0.891541	0.446915	0.67077
263	C	0.863343	0.473536	0.66374
264	C	0.808161	0.445902	0.661945
265	H	0.491571	0.122188	0.678857
266	H	0.537846	0.215336	0.676702
267	H	0.633783	0.121814	0.661955
268	H	0.680337	0.215064	0.659032
269	H	0.788869	0.324057	0.675033
270	H	0.881975	0.370786	0.677783
271	H	0.789486	0.467003	0.657507
272	H	0.882741	0.513575	0.661001
273	H	0.67917	0.466615	0.657931
274	H	0.631944	0.512646	0.661017
275	H	0.490576	0.369486	0.67886
276	H	0.537509	0.323298	0.676538
277	C	0.528814	0.47363	0.672741
278	N	0.538055	0.508369	0.97253
279	C	0.513696	0.536901	0.968593
280	C	0.475592	0.53036	0.667116
281	N	0.466789	0.495872	0.700724
282	C	0.491268	0.467258	0.705745
283	H	0.522349	0.561423	0.941875
284	C	0.480093	0.435701	0.743223
285	O	0.447756	0.433033	0.770284
286	H	0.509822	0.433335	0.756255
287	C	0.530683	0.057021	0.672925
288	N	0.540373	0.031915	0.972647
289	C	0.516212	0.979064	0.96837
290	C	0.47768	0.947177	0.666469
291	N	0.468492	0.972469	0.700173
292	C	0.492886	0.025476	0.705612
293	H	0.525051	0.963468	0.941565
294	C	0.481235	0.045287	0.743129
295	O	0.449087	0.015622	0.770324
296	H	0.510029	0.078058	0.756228
297	C	0.947298	0.475105	0.672938
298	N	0.973259	0.510248	0.973094
299	C	0.026215	0.539043	0.969864
300	C	0.057312	0.532248	0.668708
301	N	0.031163	0.497375	0.701955
302	C	0.978011	0.4686	0.706309
303	H	0.04249	0.563801	0.94334
304	C	0.957208	0.436733	0.74349
305	O	0.986149	0.43399	0.771305
306	H	0.924093	0.432609	0.755921
