data_C180H72N54_2018-02-15_10:42:25
#******************************************
#
# CIF file created by Zeo++
# Zeo++ is an open source package to
# analyze microporous materials
#
#*******************************************

_cell_length_a		29.3668   
_cell_length_b		29.3669   
_cell_length_c		29.8956   
_cell_angle_alpha		90   
_cell_angle_beta		90   
_cell_angle_gamma		120   

_symmetry_space_group_name_H-M		'P1'
_symmetry_Int_Tables_number		1
_symmetry_cell_setting		Monoclinic

loop_
_symmetry_equiv_pos_as_xyz
'+x,+y,+z'

loop_
_atom_site_label
_atom_site_type_symbol
_atom_site_fract_x
_atom_site_fract_y
_atom_site_fract_z
1	C	0.027435	0.514154	0.043295
2	C	0.027435	0.514154	0.376628
3	C	0.027435	0.514154	0.709962
4	N	0.031062	0.515971	0.297166
5	N	0.031062	0.515971	0.630498
6	N	0.031062	0.515971	0.963832
7	C	0.047853	0.524361	0.083186
8	C	0.047853	0.524361	0.41652
9	C	0.047853	0.524361	0.749851
10	C	0.363118	0.722742	0.000617
11	N	0.388587	0.69473	0.00064
12	C	0.363118	0.641252	0.000617
13	N	0.309639	0.615784	0.00064
14	C	0.281627	0.641252	0.000617
15	N	0.309638	0.69473	0.00064
16	C	0.391211	0.613157	0.000854
17	C	0.446989	0.639962	0.001089
18	C	0.474747	0.612367	0.001681
19	C	0.447435	0.55693	0.002047
20	C	0.392002	0.529622	0.001681
21	C	0.364406	0.557378	0.001085
22	C	0.391212	0.77893	0.000854
23	C	0.44699	0.807905	0.001085
24	C	0.474747	0.863255	0.001677
25	C	0.447438	0.891381	0.002045
26	C	0.392002	0.863255	0.001681
27	C	0.364408	0.807905	0.001089
28	C	0.225439	0.613157	0.000854
29	C	0.196466	0.639962	0.001085
30	C	0.141113	0.612367	0.001674
31	C	0.112989	0.556934	0.002042
32	C	0.141113	0.529622	0.001677
33	C	0.196465	0.557378	0.001085
34	H	0.514999	0.882825	0.00206
35	H	0.468336	0.789055	0.000992
36	H	0.371321	0.882825	0.002062
37	H	0.324213	0.789055	0.000992
38	H	0.215312	0.680155	0.000988
39	H	0.121545	0.633049	0.002056
40	H	0.215311	0.536032	0.000995
41	H	0.121544	0.489371	0.002063
42	H	0.324213	0.536032	0.000992
43	H	0.371319	0.489371	0.002059
44	H	0.514998	0.633049	0.002061
45	H	0.468336	0.680155	0.000992
46	C	0.642123	0.280753	0.003016
47	N	0.616652	0.308764	0.002995
48	C	0.642122	0.362243	0.003014
49	N	0.695603	0.387712	0.002995
50	C	0.723612	0.362244	0.003014
51	N	0.695602	0.308764	0.002995
52	C	0.614029	0.390337	0.002811
53	C	0.55825	0.363533	0.002606
54	C	0.530492	0.391128	0.002063
55	C	0.557802	0.446563	0.001734
56	C	0.613236	0.473875	0.00207
57	C	0.640832	0.446115	0.002608
58	C	0.61403	0.224565	0.002811
59	C	0.558251	0.195591	0.002604
60	C	0.530492	0.140238	0.002064
61	C	0.557804	0.112114	0.001728
62	C	0.613239	0.140239	0.00206
63	C	0.640834	0.195592	0.002605
64	C	0.779802	0.390338	0.002813
65	C	0.808775	0.363534	0.002607
66	C	0.86413	0.39113	0.002066
67	C	0.892251	0.446563	0.001738
68	C	0.864129	0.473875	0.002074
69	C	0.808773	0.446115	0.002609
70	H	0.490242	0.120669	0.001697
71	H	0.536905	0.214437	0.002686
72	H	0.633922	0.12067	0.001691
73	H	0.681027	0.214439	0.002679
74	H	0.789928	0.323341	0.002683
75	H	0.883697	0.370448	0.001697
76	H	0.789927	0.467462	0.002681
77	H	0.883696	0.514127	0.001697
78	H	0.681025	0.467462	0.002684
79	H	0.633919	0.514123	0.001701
80	H	0.490241	0.370446	0.001694
81	H	0.536903	0.32334	0.002677
82	C	0.475205	0.529159	0.003377
83	N	0.488393	0.515963	0.297168
84	C	0.51502	0.489339	0.29383
85	C	0.530032	0.474335	0.000416
86	N	0.516843	0.487531	0.039959
87	C	0.490217	0.514158	0.043297
88	C	0.480012	0.524369	0.083188
89	C	0.525224	0.479128	0.253938
90	N	0.534302	0.470045	0.218774
91	N	0.470934	0.533452	0.118352
92	C	0.475207	0.94692	0.003375
93	N	0.488403	0.973304	0.297164
94	C	0.515028	0.026556	0.293826
95	C	0.530033	0.056572	0.00041
96	N	0.516838	0.030189	0.039955
97	C	0.490212	0.976937	0.043293
98	C	0.480002	0.956522	0.083185
99	C	0.525238	0.046968	0.253933
100	N	0.534321	0.065128	0.218768
101	N	0.470919	0.93836	0.11835
102	C	0.057448	0.529162	0.003375
103	C	0.977809	0.489343	0.29383
104	C	0.947793	0.474335	0.000416
105	N	0.97418	0.487527	0.039959
106	C	0.957394	0.47914	0.253938
107	N	0.939228	0.470057	0.218775
108	N	0.066016	0.53344	0.118349
109	C	0.363118	0.722742	0.333952
110	N	0.388587	0.69473	0.333975
111	C	0.363118	0.641252	0.333953
112	N	0.309639	0.615784	0.333974
113	C	0.281627	0.641252	0.333951
114	N	0.309638	0.69473	0.333974
115	C	0.391211	0.613157	0.33419
116	C	0.446989	0.639962	0.334423
117	C	0.474747	0.612367	0.335016
118	C	0.447435	0.55693	0.335381
119	C	0.392002	0.529622	0.335016
120	C	0.364406	0.557378	0.33442
121	C	0.391212	0.77893	0.334189
122	C	0.44699	0.807905	0.334419
123	C	0.474747	0.863255	0.33501
124	C	0.447438	0.891381	0.335378
125	C	0.392002	0.863255	0.335016
126	C	0.364408	0.807905	0.334424
127	C	0.225439	0.613157	0.334189
128	C	0.196466	0.639962	0.33442
129	C	0.141113	0.612367	0.33501
130	C	0.112989	0.556934	0.335374
131	C	0.141113	0.529622	0.335013
132	C	0.196465	0.557378	0.334419
133	H	0.514999	0.882825	0.335394
134	H	0.468336	0.789055	0.334326
135	H	0.371321	0.882825	0.335394
136	H	0.324213	0.789055	0.334327
137	H	0.215312	0.680155	0.334321
138	H	0.121545	0.633049	0.335388
139	H	0.215311	0.536032	0.334328
140	H	0.121544	0.489371	0.335394
141	H	0.324213	0.536032	0.334325
142	H	0.371319	0.489371	0.335391
143	H	0.514998	0.633049	0.335394
144	H	0.468336	0.680155	0.334326
145	C	0.642123	0.280753	0.336348
146	N	0.616652	0.308764	0.336328
147	C	0.642122	0.362243	0.336348
148	N	0.695603	0.387712	0.336328
149	C	0.723612	0.362244	0.336348
150	N	0.695602	0.308764	0.336328
151	C	0.614029	0.390337	0.336144
152	C	0.55825	0.363533	0.33594
153	C	0.530492	0.391128	0.335394
154	C	0.557802	0.446563	0.33507
155	C	0.613236	0.473875	0.335404
156	C	0.640832	0.446115	0.33594
157	C	0.61403	0.224565	0.336144
158	C	0.558251	0.195591	0.335936
159	C	0.530492	0.140238	0.335398
160	C	0.557804	0.112114	0.33506
161	C	0.613239	0.140239	0.335394
162	C	0.640834	0.195592	0.335936
163	C	0.779802	0.390338	0.336147
164	C	0.808775	0.363534	0.33594
165	C	0.86413	0.39113	0.335398
166	C	0.892251	0.446563	0.33507
167	C	0.864129	0.473875	0.335408
168	C	0.808773	0.446115	0.335943
169	H	0.490242	0.120669	0.335033
170	H	0.536905	0.214437	0.33602
171	H	0.633922	0.12067	0.335023
172	H	0.681027	0.214439	0.336013
173	H	0.789928	0.323341	0.336017
174	H	0.883697	0.370448	0.335033
175	H	0.789927	0.467462	0.336013
176	H	0.883696	0.514127	0.33503
177	H	0.681025	0.467462	0.336017
178	H	0.633919	0.514123	0.335033
179	H	0.490241	0.370446	0.335026
180	H	0.536903	0.32334	0.33601
181	C	0.475205	0.529159	0.336709
182	N	0.488393	0.515963	0.630502
183	C	0.51502	0.489339	0.627163
184	C	0.530032	0.474335	0.333749
185	N	0.516843	0.487531	0.373293
186	C	0.490217	0.514158	0.376631
187	C	0.480012	0.524369	0.41652
188	C	0.525224	0.479128	0.587271
189	N	0.534302	0.470045	0.552105
190	N	0.470934	0.533452	0.451686
191	C	0.475207	0.94692	0.336709
192	N	0.488403	0.973304	0.630498
193	C	0.515028	0.026556	0.627157
194	C	0.530033	0.056572	0.333744
195	N	0.516838	0.030189	0.373286
196	C	0.490212	0.976937	0.376628
197	C	0.480002	0.956522	0.416517
198	C	0.525238	0.046968	0.587265
199	N	0.534321	0.065128	0.552102
200	N	0.470919	0.93836	0.451683
201	C	0.057448	0.529162	0.336709
202	C	0.977809	0.489343	0.627163
203	C	0.947793	0.474335	0.33375
204	N	0.97418	0.487527	0.373293
205	C	0.957394	0.47914	0.587271
206	N	0.939228	0.470057	0.552109
207	N	0.066016	0.53344	0.451683
208	C	0.363118	0.722742	0.667286
209	N	0.388587	0.69473	0.667307
210	C	0.363118	0.641252	0.667286
211	N	0.309639	0.615784	0.667307
212	C	0.281627	0.641252	0.667283
213	N	0.309638	0.69473	0.667307
214	C	0.391211	0.613157	0.667524
215	C	0.446989	0.639962	0.667755
216	C	0.474747	0.612367	0.66835
217	C	0.447435	0.55693	0.668711
218	C	0.392002	0.529622	0.668347
219	C	0.364406	0.557378	0.667751
220	C	0.391212	0.77893	0.667521
221	C	0.44699	0.807905	0.667751
222	C	0.474747	0.863255	0.668344
223	C	0.447438	0.891381	0.668711
224	C	0.392002	0.863255	0.66835
225	C	0.364408	0.807905	0.667758
226	C	0.225439	0.613157	0.667521
227	C	0.196466	0.639962	0.667751
228	C	0.141113	0.612367	0.66834
229	C	0.112989	0.556934	0.668708
230	C	0.141113	0.529622	0.668344
231	C	0.196465	0.557378	0.667751
232	H	0.514999	0.882825	0.668725
233	H	0.468336	0.789055	0.667658
234	H	0.371321	0.882825	0.668728
235	H	0.324213	0.789055	0.667661
236	H	0.215312	0.680155	0.667654
237	H	0.121545	0.633049	0.668721
238	H	0.215311	0.536032	0.667661
239	H	0.121544	0.489371	0.668728
240	H	0.324213	0.536032	0.667658
241	H	0.371319	0.489371	0.668725
242	H	0.514998	0.633049	0.668725
243	H	0.468336	0.680155	0.667658
244	C	0.642123	0.280753	0.669681
245	N	0.616652	0.308764	0.669661
246	C	0.642122	0.362243	0.669678
247	N	0.695603	0.387712	0.669661
248	C	0.723612	0.362244	0.669681
249	N	0.695602	0.308764	0.669661
250	C	0.614029	0.390337	0.669477
251	C	0.55825	0.363533	0.66927
252	C	0.530492	0.391128	0.668728
253	C	0.557802	0.446563	0.6684
254	C	0.613236	0.473875	0.668735
255	C	0.640832	0.446115	0.669273
256	C	0.61403	0.224565	0.669477
257	C	0.558251	0.195591	0.66927
258	C	0.530492	0.140238	0.668728
259	C	0.557804	0.112114	0.668394
260	C	0.613239	0.140239	0.668725
261	C	0.640834	0.195592	0.66927
262	C	0.779802	0.390338	0.669477
263	C	0.808775	0.363534	0.669273
264	C	0.86413	0.39113	0.668732
265	C	0.892251	0.446563	0.668404
266	C	0.864129	0.473875	0.668742
267	C	0.808773	0.446115	0.669273
268	H	0.490242	0.120669	0.668364
269	H	0.536905	0.214437	0.669354
270	H	0.633922	0.12067	0.668357
271	H	0.681027	0.214439	0.669344
272	H	0.789928	0.323341	0.66935
273	H	0.883697	0.370448	0.668364
274	H	0.789927	0.467462	0.669347
275	H	0.883696	0.514127	0.668364
276	H	0.681025	0.467462	0.66935
277	H	0.633919	0.514123	0.668367
278	H	0.490241	0.370446	0.66836
279	H	0.536903	0.32334	0.669344
280	C	0.475205	0.529159	0.670043
281	N	0.488393	0.515963	0.963832
282	C	0.51502	0.489339	0.960497
283	C	0.530032	0.474335	0.667082
284	N	0.516843	0.487531	0.706627
285	C	0.490217	0.514158	0.709962
286	C	0.480012	0.524369	0.749854
287	C	0.525224	0.479128	0.920605
288	N	0.534302	0.470045	0.885439
289	N	0.470934	0.533452	0.785016
290	C	0.475207	0.94692	0.670039
291	N	0.488403	0.973304	0.963829
292	C	0.515028	0.026556	0.960491
293	C	0.530033	0.056572	0.667076
294	N	0.516838	0.030189	0.70662
295	C	0.490212	0.976937	0.709958
296	C	0.480002	0.956522	0.749851
297	C	0.525238	0.046968	0.920598
298	N	0.534321	0.065128	0.885433
299	N	0.470919	0.93836	0.785016
300	C	0.057448	0.529162	0.670039
301	C	0.977809	0.489343	0.960494
302	C	0.947793	0.474335	0.667082
303	N	0.97418	0.487527	0.706623
304	C	0.957394	0.47914	0.920605
305	N	0.939228	0.470057	0.885439
306	N	0.066016	0.53344	0.785016
