data_C162H144N18_2018-02-15_10:34:03
#******************************************
#
# CIF file created by Zeo++
# Zeo++ is an open source package to
# analyze microporous materials
#
#*******************************************

_cell_length_a		29.2939   
_cell_length_b		29.2938   
_cell_length_c		30.0138   
_cell_angle_alpha		90   
_cell_angle_beta		90   
_cell_angle_gamma		120   

_symmetry_space_group_name_H-M		'P1'
_symmetry_Int_Tables_number		1
_symmetry_cell_setting		Monoclinic

loop_
_symmetry_equiv_pos_as_xyz
'+x,+y,+z'

loop_
_atom_site_label
_atom_site_type_symbol
_atom_site_fract_x
_atom_site_fract_y
_atom_site_fract_z
1	C	0.357691	0.635423	0.953355
2	C	0.302155	0.611162	0.953195
3	C	0.277284	0.641738	0.953298
4	C	0.308557	0.697274	0.953178
5	C	0.364006	0.722146	0.953328
6	C	0.388269	0.690872	0.953238
7	H	0.290766	0.719706	0.952219
8	H	0.428492	0.708666	0.952275
9	H	0.279723	0.570936	0.952242
10	N	0.384084	0.606191	0.951382
11	H	0.371646	0.582659	0.923509
12	N	0.393245	0.777773	0.951356
13	H	0.416808	0.788865	0.923502
14	N	0.22166	0.615352	0.951319
15	H	0.210574	0.627804	0.923449
16	C	0.642327	0.36475	0.051129
17	C	0.697809	0.388325	0.051388
18	C	0.721989	0.357111	0.051098
19	C	0.69008	0.301629	0.051361
20	C	0.634688	0.277449	0.051112
21	C	0.611114	0.309357	0.051386
22	H	0.707377	0.278729	0.050906
23	H	0.570916	0.292059	0.05095
24	H	0.720711	0.428523	0.05093
25	N	0.616674	0.39473	0.049639
26	H	0.630106	0.421526	0.075325
27	N	0.604708	0.221819	0.049613
28	H	0.577908	0.208445	0.075297
29	N	0.777619	0.382762	0.049586
30	H	0.790999	0.36933	0.075259
31	C	0.415329	0.552236	0.992633
32	C	0.456134	0.565827	0.294506
33	C	0.489881	0.544743	0.297449
34	C	0.483981	0.509219	0.998544
35	C	0.443292	0.495691	0.03008
36	C	0.409825	0.517158	0.02732
37	H	0.438242	0.470767	0.055907
38	H	0.381082	0.506803	0.050936
39	C	0.518155	0.487784	0.334589
40	C	0.573447	0.520619	0.330832
41	C	0.607184	0.499444	0.33286
42	C	0.586611	0.444704	0.338434
43	C	0.531425	0.411774	0.008783
44	C	0.497719	0.433021	0.007152
45	H	0.589804	0.56051	0.327094
46	H	0.64695	0.524383	0.330086
47	H	0.515357	0.371917	0.012487
48	H	0.462103	0.591504	0.269147
49	H	0.457908	0.407848	0.009206
50	H	0.518467	0.55509	0.273685
51	C	0.621642	0.421585	0.339764
52	H	0.662814	0.451831	0.334233
53	H	0.610071	0.393159	0.31245
54	C	0.378932	0.573987	0.991384
55	H	0.386686	0.598248	0.021235
56	H	0.338342	0.541148	0.99333
57	C	0.447162	0.862971	0.99262
58	C	0.433582	0.890181	0.294479
59	C	0.454653	0.945011	0.297424
60	C	0.490181	0.974641	0.998517
61	C	0.503692	0.947482	0.030069
62	C	0.482217	0.892546	0.027319
63	H	0.528606	0.967357	0.055899
64	H	0.492565	0.874161	0.050942
65	C	0.511628	0.030251	0.334553
66	C	0.478801	0.052718	0.330789
67	C	0.499986	0.10763	0.332815
68	C	0.554726	0.14179	0.338398
69	C	0.587645	0.119522	0.00876
70	C	0.566393	0.06457	0.007114
71	H	0.438913	0.029192	0.327037
72	H	0.475053	0.122467	0.330028
73	H	0.627502	0.143305	0.012465
74	H	0.407927	0.870476	0.269108
75	H	0.591558	0.049925	0.009189
76	H	0.444348	0.963257	0.273634
77	C	0.577857	0.199939	0.339734
78	H	0.547615	0.210876	0.334203
79	H	0.606287	0.216797	0.312423
80	C	0.425408	0.804821	0.991374
81	H	0.401122	0.788317	0.021213
82	H	0.458246	0.797072	0.993353
83	C	0.13645	0.584089	0.992563
84	C	0.109243	0.543304	0.294419
85	C	0.05441	0.509554	0.297353
86	C	0.024777	0.515451	0.998444
87	C	0.05193	0.55613	0.029988
88	C	0.106868	0.589584	0.027247
89	H	0.032053	0.561164	0.055819
90	H	0.125251	0.61832	0.050869
91	C	0.969166	0.48128	0.334479
92	C	0.946706	0.425988	0.330705
93	C	0.891796	0.392252	0.332755
94	C	0.857628	0.412823	0.338344
95	C	0.87989	0.468012	0.008698
96	C	0.93484	0.501718	0.007046
97	H	0.970236	0.40963	0.326975
98	H	0.876964	0.352483	0.329977
99	H	0.856101	0.484079	0.012415
100	H	0.128953	0.537344	0.269056
101	H	0.94948	0.541526	0.009125
102	H	0.036172	0.480988	0.273574
103	C	0.799482	0.377796	0.339697
104	H	0.788552	0.336622	0.33416
105	H	0.782609	0.389364	0.312394
106	C	0.194598	0.620488	0.991321
107	H	0.211099	0.612726	0.021171
108	H	0.202348	0.661076	0.993276
109	C	0.357691	0.635423	0.286686
110	C	0.302155	0.611162	0.286529
111	C	0.277284	0.641738	0.286633
112	C	0.308557	0.697274	0.286513
113	C	0.364006	0.722146	0.28666
114	C	0.388269	0.690872	0.286573
115	H	0.290766	0.719706	0.285551
116	H	0.428492	0.708666	0.285609
117	H	0.279723	0.570936	0.285576
118	N	0.384084	0.606191	0.284714
119	H	0.371646	0.582659	0.256841
120	N	0.393245	0.777773	0.284689
121	H	0.416808	0.788865	0.256834
122	N	0.22166	0.615352	0.284652
123	H	0.210574	0.627804	0.256782
124	C	0.642327	0.36475	0.384463
125	C	0.697809	0.388325	0.38472
126	C	0.721989	0.357111	0.38443
127	C	0.69008	0.301629	0.384693
128	C	0.634688	0.277449	0.384446
129	C	0.611114	0.309357	0.38472
130	H	0.707377	0.278729	0.38424
131	H	0.570916	0.292059	0.384283
132	H	0.720711	0.428523	0.384263
133	N	0.616674	0.39473	0.382974
134	H	0.630106	0.421526	0.408659
135	N	0.604708	0.221819	0.382947
136	H	0.577908	0.208445	0.408632
137	N	0.777619	0.382762	0.382917
138	H	0.790999	0.36933	0.408592
139	C	0.415329	0.552236	0.325968
140	C	0.456134	0.565827	0.627838
141	C	0.489881	0.544743	0.630783
142	C	0.483981	0.509219	0.331877
143	C	0.443292	0.495691	0.363413
144	C	0.409825	0.517158	0.360654
145	H	0.438242	0.470767	0.389241
146	H	0.381082	0.506803	0.38427
147	C	0.518155	0.487784	0.667923
148	C	0.573447	0.520619	0.664164
149	C	0.607184	0.499444	0.666194
150	C	0.586611	0.444704	0.671768
151	C	0.531425	0.411774	0.342116
152	C	0.497719	0.433021	0.340487
153	H	0.589804	0.56051	0.660426
154	H	0.64695	0.524383	0.663418
155	H	0.515357	0.371917	0.345821
156	H	0.462103	0.591504	0.60248
157	H	0.457908	0.407848	0.342539
158	H	0.518467	0.55509	0.607017
159	C	0.621642	0.421585	0.673097
160	H	0.662814	0.451831	0.667566
161	H	0.610071	0.393159	0.645783
162	C	0.378932	0.573987	0.324716
163	H	0.386686	0.598248	0.354567
164	H	0.338342	0.541148	0.326662
165	C	0.447162	0.862971	0.325954
166	C	0.433582	0.890181	0.627811
167	C	0.454653	0.945011	0.630757
168	C	0.490181	0.974641	0.33185
169	C	0.503692	0.947482	0.363403
170	C	0.482217	0.892546	0.360651
171	H	0.528606	0.967357	0.389231
172	H	0.492565	0.874161	0.384277
173	C	0.511628	0.030251	0.667886
174	C	0.478801	0.052718	0.664121
175	C	0.499986	0.10763	0.666147
176	C	0.554726	0.14179	0.671731
177	C	0.587645	0.119522	0.342093
178	C	0.566393	0.06457	0.340447
179	H	0.438913	0.029192	0.66037
180	H	0.475053	0.122467	0.663362
181	H	0.627502	0.143305	0.345798
182	H	0.407927	0.870476	0.60244
183	H	0.591558	0.049925	0.342522
184	H	0.444348	0.963257	0.606967
185	C	0.577857	0.199939	0.673067
186	H	0.547615	0.210876	0.667536
187	H	0.606287	0.216797	0.645756
188	C	0.425408	0.804821	0.324708
189	H	0.401122	0.788317	0.354547
190	H	0.458246	0.797072	0.326687
191	C	0.13645	0.584089	0.325896
192	C	0.109243	0.543304	0.627751
193	C	0.05441	0.509554	0.630687
194	C	0.024777	0.515451	0.331776
195	C	0.05193	0.55613	0.363323
196	C	0.106868	0.589584	0.360581
197	H	0.032053	0.561164	0.389151
198	H	0.125251	0.61832	0.384203
199	C	0.969166	0.48128	0.667813
200	C	0.946706	0.425988	0.664038
201	C	0.891796	0.392252	0.666087
202	C	0.857628	0.412823	0.671678
203	C	0.87989	0.468012	0.342033
204	C	0.93484	0.501718	0.34038
205	H	0.970236	0.40963	0.66031
206	H	0.876964	0.352483	0.663312
207	H	0.856101	0.484079	0.345748
208	H	0.128953	0.537344	0.60239
209	H	0.94948	0.541526	0.342459
210	H	0.036172	0.480988	0.606907
211	C	0.799482	0.377796	0.67303
212	H	0.788552	0.336622	0.667493
213	H	0.782609	0.389364	0.645726
214	C	0.194598	0.620488	0.324654
215	H	0.211099	0.612726	0.354504
216	H	0.202348	0.661076	0.326609
217	C	0.357691	0.635423	0.620021
218	C	0.302155	0.611162	0.619862
219	C	0.277284	0.641738	0.619965
220	C	0.308557	0.697274	0.619845
221	C	0.364006	0.722146	0.619995
222	C	0.388269	0.690872	0.619905
223	H	0.290766	0.719706	0.618885
224	H	0.428492	0.708666	0.618942
225	H	0.279723	0.570936	0.618909
226	N	0.384084	0.606191	0.618049
227	H	0.371646	0.582659	0.590175
228	N	0.393245	0.777773	0.618022
229	H	0.416808	0.788865	0.590169
230	N	0.22166	0.615352	0.617986
231	H	0.210574	0.627804	0.590115
232	C	0.642327	0.36475	0.717796
233	C	0.697809	0.388325	0.718053
234	C	0.721989	0.357111	0.717763
235	C	0.69008	0.301629	0.718026
236	C	0.634688	0.277449	0.71778
237	C	0.611114	0.309357	0.718053
238	H	0.707377	0.278729	0.717573
239	H	0.570916	0.292059	0.717617
240	H	0.720711	0.428523	0.717597
241	N	0.616674	0.39473	0.716307
242	H	0.630106	0.421526	0.741992
243	N	0.604708	0.221819	0.716281
244	H	0.577908	0.208445	0.741965
245	N	0.777619	0.382762	0.716251
246	H	0.790999	0.36933	0.741925
247	C	0.415329	0.552236	0.6593
248	C	0.456134	0.565827	0.961171
249	C	0.489881	0.544743	0.964117
250	C	0.483981	0.509219	0.665211
251	C	0.443292	0.495691	0.696746
252	C	0.409825	0.517158	0.693987
253	H	0.438242	0.470767	0.722574
254	H	0.381082	0.506803	0.717603
255	C	0.518155	0.487784	0.001257
256	C	0.573447	0.520619	0.997498
257	C	0.607184	0.499444	0.999527
258	C	0.586611	0.444704	0.005101
259	C	0.531425	0.411774	0.675449
260	C	0.497719	0.433021	0.67382
261	H	0.589804	0.56051	0.99376
262	H	0.64695	0.524383	0.996751
263	H	0.515357	0.371917	0.679154
264	H	0.462103	0.591504	0.935813
265	H	0.457908	0.407848	0.675872
266	H	0.518467	0.55509	0.940351
267	C	0.621642	0.421585	0.00643
268	H	0.662814	0.451831	0.0009
269	H	0.610071	0.393159	0.979116
270	C	0.378932	0.573987	0.658051
271	H	0.386686	0.598248	0.6879
272	H	0.338342	0.541148	0.659996
273	C	0.447162	0.862971	0.659287
274	C	0.433582	0.890181	0.961145
275	C	0.454653	0.945011	0.96409
276	C	0.490181	0.974641	0.665184
277	C	0.503692	0.947482	0.696736
278	C	0.482217	0.892546	0.693984
279	H	0.528606	0.967357	0.722564
280	H	0.492565	0.874161	0.71761
281	C	0.511628	0.030251	0.00122
282	C	0.478801	0.052718	0.997455
283	C	0.499986	0.10763	0.99948
284	C	0.554726	0.14179	0.005066
285	C	0.587645	0.119522	0.675426
286	C	0.566393	0.06457	0.67378
287	H	0.438913	0.029192	0.993703
288	H	0.475053	0.122467	0.996695
289	H	0.627502	0.143305	0.679131
290	H	0.407927	0.870476	0.935773
291	H	0.591558	0.049925	0.675856
292	H	0.444348	0.963257	0.940301
293	C	0.577857	0.199939	0.006401
294	H	0.547615	0.210876	0.00087
295	H	0.606287	0.216797	0.97909
296	C	0.425408	0.804821	0.658041
297	H	0.401122	0.788317	0.68788
298	H	0.458246	0.797072	0.66002
299	C	0.13645	0.584089	0.65923
300	C	0.109243	0.543304	0.961085
301	C	0.05441	0.509554	0.96402
302	C	0.024777	0.515451	0.665111
303	C	0.05193	0.55613	0.696656
304	C	0.106868	0.589584	0.693914
305	H	0.032053	0.561164	0.722484
306	H	0.125251	0.61832	0.717537
307	C	0.969166	0.48128	0.001145
308	C	0.946706	0.425988	0.997371
309	C	0.891796	0.392252	0.99942
310	C	0.857628	0.412823	0.005012
311	C	0.87989	0.468012	0.675366
312	C	0.93484	0.501718	0.673713
313	H	0.970236	0.40963	0.993643
314	H	0.876964	0.352483	0.996645
315	H	0.856101	0.484079	0.679081
316	H	0.128953	0.537344	0.935723
317	H	0.94948	0.541526	0.675792
318	H	0.036172	0.480988	0.940241
319	C	0.799482	0.377796	0.006363
320	H	0.788552	0.336622	0.000828
321	H	0.782609	0.389364	0.97906
322	C	0.194598	0.620488	0.657987
323	H	0.211099	0.612726	0.687837
324	H	0.202348	0.661076	0.659943
