data_C216H144N6_2018-02-15_10:40:45
#******************************************
#
# CIF file created by Zeo++
# Zeo++ is an open source package to
# analyze microporous materials
#
#*******************************************

_cell_length_a		32.4129   
_cell_length_b		32.4129   
_cell_length_c		29.0216   
_cell_angle_alpha		90   
_cell_angle_beta		90   
_cell_angle_gamma		120   

_symmetry_space_group_name_H-M		'P1'
_symmetry_Int_Tables_number		1
_symmetry_cell_setting		Monoclinic

loop_
_symmetry_equiv_pos_as_xyz
'+x,+y,+z'

loop_
_atom_site_label
_atom_site_type_symbol
_atom_site_fract_x
_atom_site_fract_y
_atom_site_fract_z
1	N	0.358176	0.683268	0.016851
2	C	0.307457	0.657864	0.016847
3	C	0.281819	0.633611	0.977018
4	C	0.231602	0.608798	0.976863
5	C	0.205441	0.606817	0.016744
6	C	0.23151	0.630978	0.056675
7	C	0.281728	0.656407	0.056628
8	H	0.353446	0.618965	0.077275
9	H	0.299739	0.634198	0.947792
10	H	0.214233	0.591324	0.947454
11	H	0.352464	0.742932	0.957188
12	H	0.299582	0.673745	0.085879
13	H	0.214066	0.631024	0.086052
14	C	0.154411	0.581292	0.350016
15	C	0.128282	0.587851	0.314565
16	C	0.078057	0.563017	0.314774
17	C	0.05146	0.529818	0.349919
18	C	0.077989	0.523163	0.05177
19	C	0.128212	0.548542	0.052067
20	H	0.060982	0.498857	0.077446
21	H	0.145585	0.541952	0.077963
22	H	0.145705	0.611865	0.288721
23	H	0.061098	0.570348	0.289072
24	N	0.358176	0.683268	0.350184
25	C	0.307457	0.657864	0.350181
26	C	0.281819	0.633611	0.310353
27	C	0.231602	0.608798	0.310198
28	C	0.205441	0.606817	0.350078
29	C	0.23151	0.630978	0.390007
30	C	0.281728	0.656407	0.389962
31	H	0.353446	0.618965	0.410609
32	H	0.299739	0.634198	0.281126
33	H	0.214233	0.591324	0.28079
34	H	0.352464	0.742932	0.290524
35	H	0.299582	0.673745	0.419212
36	H	0.214066	0.631024	0.419385
37	C	0.154411	0.581292	0.683351
38	C	0.128282	0.587851	0.647898
39	C	0.078057	0.563017	0.648108
40	C	0.05146	0.529818	0.683251
41	C	0.077989	0.523163	0.385103
42	C	0.128212	0.548542	0.3854
43	H	0.060982	0.498857	0.410777
44	H	0.145585	0.541952	0.411294
45	H	0.145705	0.611865	0.622055
46	H	0.061098	0.570348	0.622406
47	N	0.358176	0.683268	0.683519
48	C	0.307457	0.657864	0.683513
49	C	0.281819	0.633611	0.643687
50	C	0.231602	0.608798	0.643532
51	C	0.205441	0.606817	0.683409
52	C	0.23151	0.630978	0.723342
53	C	0.281728	0.656407	0.723293
54	H	0.353446	0.618965	0.74394
55	H	0.299739	0.634198	0.61446
56	H	0.214233	0.591324	0.614123
57	H	0.352464	0.742932	0.623857
58	H	0.299582	0.673745	0.752544
59	H	0.214066	0.631024	0.752716
60	C	0.154411	0.581292	0.016682
61	C	0.128282	0.587851	0.981233
62	C	0.078057	0.563017	0.981439
63	C	0.05146	0.529818	0.016586
64	C	0.077989	0.523163	0.718435
65	C	0.128212	0.548542	0.718731
66	H	0.060982	0.498857	0.744112
67	H	0.145585	0.541952	0.744629
68	H	0.145705	0.611865	0.955386
69	H	0.061098	0.570348	0.955738
70	C	0.383273	0.657572	0.015779
71	C	0.3833	0.734076	0.017929
72	C	0.415718	0.664554	0.98013
73	C	0.441372	0.639966	0.980109
74	C	0.434965	0.606579	0.015069
75	C	0.401644	0.599518	0.050304
76	C	0.376838	0.6249	0.05103
77	C	0.41631	0.75953	0.053188
78	C	0.442018	0.809768	0.053193
79	C	0.435006	0.836814	0.018732
80	C	0.401056	0.810544	0.983948
81	C	0.376299	0.760356	0.983124
82	H	0.421522	0.688423	0.954394
83	H	0.394404	0.575147	0.07589
84	H	0.422571	0.741454	0.078577
85	H	0.393303	0.827658	0.958756
86	C	0.383273	0.657572	0.349113
87	C	0.3833	0.734076	0.351263
88	C	0.415718	0.664554	0.313462
89	C	0.441372	0.639966	0.313445
90	C	0.434965	0.606579	0.348406
91	C	0.401644	0.599518	0.383639
92	C	0.376838	0.6249	0.384363
93	C	0.41631	0.75953	0.38652
94	C	0.442018	0.809768	0.386526
95	C	0.435006	0.836814	0.352066
96	C	0.401056	0.810544	0.317282
97	C	0.376299	0.760356	0.31646
98	H	0.421522	0.688423	0.28773
99	H	0.394404	0.575147	0.409223
100	H	0.422571	0.741454	0.411911
101	H	0.393303	0.827658	0.29209
102	C	0.383273	0.657572	0.682448
103	C	0.3833	0.734076	0.684594
104	C	0.415718	0.664554	0.646795
105	C	0.441372	0.639966	0.646778
106	C	0.434965	0.606579	0.681738
107	C	0.401644	0.599518	0.71697
108	C	0.376838	0.6249	0.717697
109	C	0.41631	0.75953	0.719854
110	C	0.442018	0.809768	0.719858
111	C	0.435006	0.836814	0.685397
112	C	0.401056	0.810544	0.650616
113	C	0.376299	0.760356	0.649793
114	H	0.421522	0.688423	0.621062
115	H	0.394404	0.575147	0.742555
116	H	0.422571	0.741454	0.745242
117	H	0.393303	0.827658	0.625421
118	H	0.465706	0.647654	0.954387
119	H	0.466813	0.826351	0.078557
120	C	0.461003	0.581107	0.348276
121	C	0.474322	0.567847	0.306712
122	C	0.499784	0.543077	0.30662
123	C	0.512958	0.529569	0.348096
124	C	0.499491	0.542618	0.056335
125	C	0.474565	0.567911	0.056412
126	H	0.507143	0.533245	0.087476
127	H	0.466993	0.577153	0.087649
128	C	0.538682	0.503851	0.014704
129	C	0.530845	0.46948	0.313727
130	C	0.556105	0.444507	0.313508
131	H	0.505688	0.46134	0.288728
132	H	0.548619	0.419627	0.288323
133	H	0.46493	0.575414	0.275551
134	H	0.509125	0.5355	0.275427
135	C	0.461056	0.888356	0.352245
136	C	0.473305	0.915199	0.310843
137	C	0.498227	0.965419	0.310984
138	C	0.513075	0.991899	0.352538
139	C	0.501233	0.965152	0.060607
140	C	0.47573	0.914918	0.060468
141	H	0.511605	0.98202	0.091765
142	H	0.46733	0.89796	0.091642
143	C	0.538835	0.043354	0.019315
144	C	0.557598	0.120123	0.054826
145	C	0.532339	0.06989	0.054608
146	H	0.551028	0.137496	0.080737
147	H	0.464779	0.898466	0.279556
148	H	0.508132	0.052876	0.080358
149	H	0.504849	0.982469	0.279915
150	H	0.465706	0.647654	0.287722
151	H	0.466813	0.826351	0.41189
152	C	0.461003	0.581107	0.68161
153	C	0.474322	0.567847	0.640045
154	C	0.499784	0.543077	0.639952
155	C	0.512958	0.529569	0.681431
156	C	0.499491	0.542618	0.389669
157	C	0.474565	0.567911	0.389745
158	H	0.507143	0.533245	0.420808
159	H	0.466993	0.577153	0.420984
160	C	0.538682	0.503851	0.348038
161	C	0.530845	0.46948	0.64706
162	C	0.556105	0.444507	0.64684
163	H	0.505688	0.46134	0.622062
164	H	0.548619	0.419627	0.621655
165	H	0.46493	0.575414	0.608885
166	H	0.509125	0.5355	0.608758
167	C	0.461056	0.888356	0.68558
168	C	0.473305	0.915199	0.644176
169	C	0.498227	0.965419	0.644318
170	C	0.513075	0.991899	0.685869
171	C	0.501233	0.965152	0.393938
172	C	0.47573	0.914918	0.3938
173	H	0.511605	0.98202	0.425098
174	H	0.46733	0.89796	0.424974
175	C	0.538835	0.043354	0.352648
176	C	0.557598	0.120123	0.38816
177	C	0.532339	0.06989	0.387943
178	H	0.551028	0.137496	0.414068
179	H	0.464779	0.898466	0.612889
180	H	0.508132	0.052876	0.413692
181	H	0.504849	0.982469	0.613248
182	H	0.465706	0.647654	0.621055
183	H	0.466813	0.826351	0.745222
184	C	0.461003	0.581107	0.014942
185	C	0.474322	0.567847	0.97338
186	C	0.499784	0.543077	0.973287
187	C	0.512958	0.529569	0.014763
188	C	0.499491	0.542618	0.723
189	C	0.474565	0.567911	0.723076
190	H	0.507143	0.533245	0.754143
191	H	0.466993	0.577153	0.754315
192	C	0.538682	0.503851	0.681369
193	C	0.530845	0.46948	0.980392
194	C	0.556105	0.444507	0.980175
195	H	0.505688	0.46134	0.955393
196	H	0.548619	0.419627	0.95499
197	H	0.46493	0.575414	0.942217
198	H	0.509125	0.5355	0.942093
199	C	0.461056	0.888356	0.018913
200	C	0.473305	0.915199	0.977508
201	C	0.498227	0.965419	0.977649
202	C	0.513075	0.991899	0.019205
203	C	0.501233	0.965152	0.727273
204	C	0.47573	0.914918	0.727132
205	H	0.511605	0.98202	0.758433
206	H	0.46733	0.89796	0.758309
207	C	0.538835	0.043354	0.68598
208	C	0.557598	0.120123	0.721491
209	C	0.532339	0.06989	0.721274
210	H	0.551028	0.137496	0.747403
211	H	0.464779	0.898466	0.946221
212	H	0.508132	0.052876	0.747024
213	H	0.504849	0.982469	0.946579
214	C	0.57302	0.511603	0.049016
215	C	0.571867	0.069965	0.31739
216	H	0.579142	0.053027	0.291623
217	C	0.57302	0.511603	0.38235
218	C	0.571867	0.069965	0.650723
219	H	0.579142	0.053027	0.624956
220	C	0.57302	0.511603	0.715682
221	C	0.571867	0.069965	0.984055
222	H	0.579142	0.053027	0.958288
223	N	0.691459	0.350039	0.016863
224	C	0.665795	0.375029	0.015865
225	C	0.665797	0.299382	0.017994
226	C	0.742235	0.375456	0.016727
227	C	0.76817	0.408772	0.051618
228	C	0.818383	0.434301	0.051155
229	C	0.844965	0.426781	0.016586
230	C	0.81826	0.392659	0.982073
231	C	0.768042	0.368014	0.981746
232	C	0.663847	0.398324	0.975547
233	C	0.63853	0.423247	0.97503
234	C	0.615132	0.426357	0.015018
235	C	0.617573	0.403115	0.055404
236	C	0.642207	0.377554	0.055722
237	C	0.641272	0.27318	0.9785
238	C	0.616651	0.222988	0.978896
239	C	0.615214	0.197358	0.018989
240	C	0.639578	0.223966	0.058619
241	C	0.66481	0.274208	0.05803
242	H	0.638191	0.440044	0.94529
243	H	0.680815	0.397084	0.946317
244	H	0.643293	0.361085	0.085388
245	H	0.600717	0.403963	0.08491
246	H	0.750486	0.415213	0.07727
247	H	0.835289	0.459228	0.076348
248	H	0.641652	0.290664	0.949022
249	H	0.599065	0.205248	0.949663
250	H	0.640025	0.206904	0.088124
251	H	0.682488	0.292472	0.086992
252	H	0.750254	0.343816	0.956175
253	H	0.835078	0.384583	0.956837
254	C	0.589935	0.452174	0.014777
255	C	0.597784	0.486149	0.0493
256	H	0.62255	0.493488	0.074571
257	H	0.58123	0.536772	0.074016
258	C	0.596599	0.120182	0.317124
259	C	0.590085	0.146322	0.019267
260	H	0.620422	0.137599	0.291136
261	C	1.5e-05	0.504133	0.016568
262	C	0.973408	0.489348	0.308415
263	C	0.923181	0.464575	0.308414
264	C	0.896496	0.452484	0.016568
265	C	0.923189	0.467015	0.058055
266	C	0.973414	0.492359	0.058054
267	H	0.990379	0.49595	0.277302
268	H	0.906318	0.456053	0.27719
269	H	0.906335	0.458704	0.089282
270	H	0.990378	0.502711	0.08917
271	N	0.691459	0.350039	0.350195
272	C	0.665795	0.375029	0.349199
273	C	0.665797	0.299382	0.351325
274	C	0.742235	0.375456	0.35006
275	C	0.76817	0.408772	0.384952
276	C	0.818383	0.434301	0.384487
277	C	0.844965	0.426781	0.349919
278	C	0.81826	0.392659	0.315406
279	C	0.768042	0.368014	0.31508
280	C	0.663847	0.398324	0.308883
281	C	0.63853	0.423247	0.308363
282	C	0.615132	0.426357	0.348351
283	C	0.617573	0.403115	0.388739
284	C	0.642207	0.377554	0.389056
285	C	0.641272	0.27318	0.311835
286	C	0.616651	0.222988	0.31223
287	C	0.615214	0.197358	0.352321
288	C	0.639578	0.223966	0.391953
289	C	0.66481	0.274208	0.391364
290	H	0.638191	0.440044	0.278626
291	H	0.680815	0.397084	0.27965
292	H	0.643293	0.361085	0.41872
293	H	0.600717	0.403963	0.418244
294	H	0.750486	0.415213	0.410602
295	H	0.835289	0.459228	0.409682
296	H	0.641652	0.290664	0.282357
297	H	0.599065	0.205248	0.282999
298	H	0.640025	0.206904	0.421456
299	H	0.682488	0.292472	0.420325
300	H	0.750254	0.343816	0.289511
301	H	0.835078	0.384583	0.29017
302	C	0.589935	0.452174	0.34811
303	C	0.597784	0.486149	0.382633
304	H	0.62255	0.493488	0.407904
305	H	0.58123	0.536772	0.407349
306	C	0.596599	0.120182	0.650458
307	C	0.590085	0.146322	0.3526
308	H	0.620422	0.137599	0.624467
309	C	1.5e-05	0.504133	0.349902
310	C	0.973408	0.489348	0.641747
311	C	0.923181	0.464575	0.641747
312	C	0.896496	0.452484	0.349902
313	C	0.923189	0.467015	0.391388
314	C	0.973414	0.492359	0.391388
315	H	0.990379	0.49595	0.610636
316	H	0.906318	0.456053	0.610522
317	H	0.906335	0.458704	0.422617
318	H	0.990378	0.502711	0.422503
319	N	0.691459	0.350039	0.68353
320	C	0.665795	0.375029	0.68253
321	C	0.665797	0.299382	0.68466
322	C	0.742235	0.375456	0.683395
323	C	0.76817	0.408772	0.718283
324	C	0.818383	0.434301	0.717821
325	C	0.844965	0.426781	0.683254
326	C	0.81826	0.392659	0.648738
327	C	0.768042	0.368014	0.648411
328	C	0.663847	0.398324	0.642216
329	C	0.63853	0.423247	0.641695
330	C	0.615132	0.426357	0.681686
331	C	0.617573	0.403115	0.72207
332	C	0.642207	0.377554	0.722387
333	C	0.641272	0.27318	0.645169
334	C	0.616651	0.222988	0.645561
335	C	0.615214	0.197358	0.685656
336	C	0.639578	0.223966	0.725285
337	C	0.66481	0.274208	0.724696
338	H	0.638191	0.440044	0.611959
339	H	0.680815	0.397084	0.612982
340	H	0.643293	0.361085	0.752055
341	H	0.600717	0.403963	0.751576
342	H	0.750486	0.415213	0.743937
343	H	0.835289	0.459228	0.743013
344	H	0.641652	0.290664	0.615691
345	H	0.599065	0.205248	0.616331
346	H	0.640025	0.206904	0.754791
347	H	0.682488	0.292472	0.753657
348	H	0.750254	0.343816	0.622844
349	H	0.835078	0.384583	0.623502
350	C	0.589935	0.452174	0.681442
351	C	0.597784	0.486149	0.715964
352	H	0.62255	0.493488	0.741235
353	H	0.58123	0.536772	0.74068
354	C	0.596599	0.120182	0.983789
355	C	0.590085	0.146322	0.685931
356	H	0.620422	0.137599	0.957802
357	C	1.5e-05	0.504133	0.683233
358	C	0.973408	0.489348	0.975082
359	C	0.923181	0.464575	0.975078
360	C	0.896496	0.452484	0.683233
361	C	0.923189	0.467015	0.72472
362	C	0.973414	0.492359	0.72472
363	H	0.990379	0.49595	0.943967
364	H	0.906318	0.456053	0.943857
365	H	0.906335	0.458704	0.755948
366	H	0.990378	0.502711	0.755835
