data_C216H144N18_2018-02-15_10:42:04
#******************************************
#
# CIF file created by Zeo++
# Zeo++ is an open source package to
# analyze microporous materials
#
#*******************************************

_cell_length_a		37.3451   
_cell_length_b		37.3196   
_cell_length_c		29.7822   
_cell_angle_alpha		90   
_cell_angle_beta		90   
_cell_angle_gamma		120.036   

_symmetry_space_group_name_H-M		'P1'
_symmetry_Int_Tables_number		1
_symmetry_cell_setting		Monoclinic

loop_
_symmetry_equiv_pos_as_xyz
'+x,+y,+z'

loop_
_atom_site_label
_atom_site_type_symbol
_atom_site_fract_x
_atom_site_fract_y
_atom_site_fract_z
1	C	0.457832	0.915407	0.000979
2	C	0.476452	0.890358	0.333312
3	C	0.452506	0.84688	0.335304
4	C	0.408876	0.826736	0.004804
5	C	0.390089	0.851519	0.00587
6	C	0.414106	0.894982	0.00379
7	C	0.38451	0.783895	0.008727
8	C	0.388275	0.756586	0.315821
9	C	0.363443	0.713764	0.319282
10	C	0.319746	0.694289	0.319103
11	C	0.294582	0.650674	0.319521
12	C	0.314027	0.62642	0.31921
13	C	0.357619	0.64488	0.319363
14	C	0.38187	0.688609	0.318968
15	C	0.375586	0.620038	0.315968
16	C	0.40691	0.624059	0.008595
17	C	0.425417	0.599746	0.337954
18	C	0.469008	0.618654	0.005343
19	C	0.401971	0.556063	0.335399
20	C	0.421556	0.532202	0.333294
21	C	0.465247	0.550944	0.000559
22	C	0.488505	0.594722	0.003111
23	C	0.251759	0.632697	0.316382
24	C	0.224601	0.60156	0.009337
25	C	0.181806	0.583047	0.338827
26	C	0.161517	0.606453	0.004723
27	C	0.157246	0.539433	0.337813
28	C	0.113813	0.519865	0.335702
29	C	0.093188	0.543042	0.001586
30	C	0.118049	0.586777	0.002641
31	H	0.507876	0.903544	0.330845
32	H	0.467344	0.830079	0.335263
33	H	0.39918	0.911625	0.005777
34	H	0.358616	0.838123	0.008528
35	H	0.413467	0.702361	0.317402
36	H	0.306025	0.712167	0.317682
37	H	0.296146	0.594797	0.317852
38	H	0.178199	0.638083	0.006539
39	H	0.487071	0.650167	0.00779
40	H	0.520093	0.609753	0.004855
41	H	0.403327	0.500739	0.330994
42	H	0.370326	0.541129	0.335607
43	H	0.104687	0.604924	0.003359
44	H	0.097383	0.488235	0.334294
45	H	0.170798	0.521415	0.338481
46	H	0.418545	0.646468	0.031539
47	H	0.364058	0.597799	0.292836
48	H	0.36229	0.773118	0.031873
49	H	0.410333	0.767296	0.2925
50	H	0.235417	0.589996	0.032292
51	H	0.240916	0.644097	0.293267
52	C	0.552951	0.091227	0.002996
53	C	0.536298	0.115754	0.320796
54	C	0.559007	0.159269	0.323424
55	C	0.599685	0.180144	0.007676
56	C	0.616461	0.155798	0.023157
57	C	0.593568	0.112283	0.020884
58	C	0.62276	0.22318	0.011801
59	C	0.623675	0.250187	0.314554
60	C	0.647773	0.292903	0.318727
61	C	0.691439	0.312588	0.320019
62	C	0.716454	0.356274	0.319942
63	C	0.696621	0.380178	0.317888
64	C	0.653019	0.361313	0.317127
65	C	0.628954	0.317624	0.317033
66	C	0.634518	0.385455	0.312509
67	C	0.608	0.386037	0.009398
68	C	0.588066	0.409118	0.338666
69	C	0.54694	0.392259	0.020857
70	C	0.607926	0.449941	0.3214
71	C	0.587182	0.4727	0.319135
72	C	0.546	0.455952	0.001388
73	C	0.526378	0.415188	0.018942
74	C	0.759432	0.374257	0.317971
75	C	0.786605	0.408877	0.006539
76	C	0.829204	0.426198	0.336705
77	C	0.849197	0.404893	0.01882
78	C	0.85374	0.466754	0.319847
79	C	0.89712	0.485332	0.318025
80	C	0.91758	0.464405	0.000418
81	C	0.892616	0.423752	0.017423
82	H	0.50687	0.10218	0.308249
83	H	0.545166	0.175528	0.312915
84	H	0.607175	0.096156	0.032519
85	H	0.645686	0.169577	0.036405
86	H	0.597371	0.303659	0.314676
87	H	0.705236	0.294746	0.319843
88	H	0.714146	0.411789	0.315944
89	H	0.832335	0.375668	0.031835
90	H	0.531449	0.362944	0.033927
91	H	0.496646	0.401501	0.030602
92	H	0.603076	0.502231	0.306817
93	H	0.638034	0.46386	0.310906
94	H	0.905776	0.40723	0.029128
95	H	0.913655	0.514897	0.305923
96	H	0.840238	0.483202	0.308799
97	H	0.601131	0.367847	0.03627
98	H	0.641604	0.403005	0.285161
99	H	0.640675	0.234543	0.038855
100	H	0.606417	0.239529	0.287022
101	H	0.776211	0.423706	0.025446
102	H	0.770612	0.359969	0.299234
103	C	0.469239	0.488733	0.023412
104	N	0.489396	0.466943	0.02306
105	C	0.525363	0.479485	0.00032
106	N	0.541082	0.515761	0.310603
107	C	0.522558	0.539123	0.309639
108	C	0.485191	0.526606	0.333162
109	H	0.44291	0.477541	0.042206
110	H	0.536142	0.565699	0.291061
111	C	0.520103	0.981453	0.024068
112	N	0.541925	0.023433	0.024024
113	C	0.529435	0.047034	0.001556
114	N	0.4932	0.026638	0.311784
115	C	0.469806	0.984734	0.310524
116	C	0.482257	0.959706	0.333783
117	H	0.531233	0.96616	0.042685
118	H	0.443243	0.971864	0.291957
119	C	0.023574	0.486223	0.02504
120	N	0.981762	0.46828	0.024065
121	C	0.961677	0.483874	1e-06
122	N	0.985508	0.519193	0.309636
123	C	0.027465	0.538746	0.309219
124	C	0.048897	0.522988	0.334022
125	H	0.036151	0.472948	0.044745
126	H	0.043013	0.564779	0.290013
127	C	0.457832	0.915407	0.334312
128	C	0.476452	0.890358	0.666644
129	C	0.452506	0.84688	0.668635
130	C	0.408876	0.826736	0.338135
131	C	0.390089	0.851519	0.339203
132	C	0.414106	0.894982	0.337121
133	C	0.38451	0.783895	0.342061
134	C	0.388275	0.756586	0.649154
135	C	0.363443	0.713764	0.652616
136	C	0.319746	0.694289	0.652438
137	C	0.294582	0.650674	0.652854
138	C	0.314027	0.62642	0.652542
139	C	0.357619	0.64488	0.652696
140	C	0.38187	0.688609	0.6523
141	C	0.375586	0.620038	0.649302
142	C	0.40691	0.624059	0.34193
143	C	0.425417	0.599746	0.671288
144	C	0.469008	0.618654	0.338676
145	C	0.401971	0.556063	0.668733
146	C	0.421556	0.532202	0.666627
147	C	0.465247	0.550944	0.333894
148	C	0.488505	0.594722	0.336443
149	C	0.251759	0.632697	0.649715
150	C	0.224601	0.60156	0.342668
151	C	0.181806	0.583047	0.672157
152	C	0.161517	0.606453	0.338055
153	C	0.157246	0.539433	0.671143
154	C	0.113813	0.519865	0.669035
155	C	0.093188	0.543042	0.33492
156	C	0.118049	0.586777	0.335976
157	H	0.507876	0.903544	0.66418
158	H	0.467344	0.830079	0.668595
159	H	0.39918	0.911625	0.339109
160	H	0.358616	0.838123	0.341862
161	H	0.413467	0.702361	0.650735
162	H	0.306025	0.712167	0.651014
163	H	0.296146	0.594797	0.651185
164	H	0.178199	0.638083	0.339871
165	H	0.487071	0.650167	0.341124
166	H	0.520093	0.609753	0.338189
167	H	0.403327	0.500739	0.664327
168	H	0.370326	0.541129	0.668941
169	H	0.104687	0.604924	0.336692
170	H	0.097383	0.488235	0.667628
171	H	0.170798	0.521415	0.671812
172	H	0.418545	0.646468	0.364873
173	H	0.364058	0.597799	0.62617
174	H	0.36229	0.773118	0.365205
175	H	0.410333	0.767296	0.625834
176	H	0.235417	0.589996	0.365625
177	H	0.240916	0.644097	0.6266
178	C	0.552951	0.091227	0.336332
179	C	0.536298	0.115754	0.65413
180	C	0.559007	0.159269	0.656756
181	C	0.599685	0.180144	0.34101
182	C	0.616461	0.155798	0.356489
183	C	0.593568	0.112283	0.354215
184	C	0.62276	0.22318	0.345133
185	C	0.623675	0.250187	0.647888
186	C	0.647773	0.292903	0.652058
187	C	0.691439	0.312588	0.653351
188	C	0.716454	0.356274	0.653274
189	C	0.696621	0.380178	0.651222
190	C	0.653019	0.361313	0.65046
191	C	0.628954	0.317624	0.650366
192	C	0.634518	0.385455	0.645843
193	C	0.608	0.386037	0.342732
194	C	0.588066	0.409118	0.672
195	C	0.54694	0.392259	0.354189
196	C	0.607926	0.449941	0.654734
197	C	0.587182	0.4727	0.652468
198	C	0.546	0.455952	0.334722
199	C	0.526378	0.415188	0.352275
200	C	0.759432	0.374257	0.651303
201	C	0.786605	0.408877	0.339871
202	C	0.829204	0.426198	0.670039
203	C	0.849197	0.404893	0.352154
204	C	0.85374	0.466754	0.65318
205	C	0.89712	0.485332	0.651356
206	C	0.91758	0.464405	0.33375
207	C	0.892616	0.423752	0.350757
208	H	0.50687	0.10218	0.641582
209	H	0.545166	0.175528	0.646246
210	H	0.607175	0.096156	0.36585
211	H	0.645686	0.169577	0.369738
212	H	0.597371	0.303659	0.648009
213	H	0.705236	0.294746	0.653176
214	H	0.714146	0.411789	0.649278
215	H	0.832335	0.375668	0.365168
216	H	0.531449	0.362944	0.36726
217	H	0.496646	0.401501	0.363936
218	H	0.603076	0.502231	0.640152
219	H	0.638034	0.46386	0.644238
220	H	0.905776	0.40723	0.362462
221	H	0.913655	0.514897	0.639255
222	H	0.840238	0.483202	0.642133
223	H	0.601131	0.367847	0.369604
224	H	0.641604	0.403005	0.618494
225	H	0.640675	0.234543	0.372189
226	H	0.606417	0.239529	0.620355
227	H	0.776211	0.423706	0.358779
228	H	0.770612	0.359969	0.632567
229	C	0.469239	0.488733	0.356744
230	N	0.489396	0.466943	0.356395
231	C	0.525363	0.479485	0.333656
232	N	0.541082	0.515761	0.643936
233	C	0.522558	0.539123	0.642972
234	C	0.485191	0.526606	0.666493
235	H	0.44291	0.477541	0.37554
236	H	0.536142	0.565699	0.624394
237	C	0.520103	0.981453	0.357402
238	N	0.541925	0.023433	0.357358
239	C	0.529435	0.047034	0.334891
240	N	0.4932	0.026638	0.645118
241	C	0.469806	0.984734	0.643855
242	C	0.482257	0.959706	0.667118
243	H	0.531233	0.96616	0.376017
244	H	0.443243	0.971864	0.62529
245	C	0.023574	0.486223	0.358372
246	N	0.981762	0.46828	0.357399
247	C	0.961677	0.483874	0.333336
248	N	0.985508	0.519193	0.642969
249	C	0.027465	0.538746	0.642552
250	C	0.048897	0.522988	0.667356
251	H	0.036151	0.472948	0.378079
252	H	0.043013	0.564779	0.623346
253	C	0.457832	0.915407	0.667645
254	C	0.476452	0.890358	0.999978
255	C	0.452506	0.84688	0.001969
256	C	0.408876	0.826736	0.671469
257	C	0.390089	0.851519	0.672537
258	C	0.414106	0.894982	0.670455
259	C	0.38451	0.783895	0.675394
260	C	0.388275	0.756586	0.982488
261	C	0.363443	0.713764	0.985946
262	C	0.319746	0.694289	0.985768
263	C	0.294582	0.650674	0.986188
264	C	0.314027	0.62642	0.985876
265	C	0.357619	0.64488	0.98603
266	C	0.38187	0.688609	0.985634
267	C	0.375586	0.620038	0.982632
268	C	0.40691	0.624059	0.67526
269	C	0.425417	0.599746	0.004621
270	C	0.469008	0.618654	0.67201
271	C	0.401971	0.556063	0.002066
272	C	0.421556	0.532202	0.999961
273	C	0.465247	0.550944	0.667225
274	C	0.488505	0.594722	0.669777
275	C	0.251759	0.632697	0.983048
276	C	0.224601	0.60156	0.676002
277	C	0.181806	0.583047	0.005493
278	C	0.161517	0.606453	0.671389
279	C	0.157246	0.539433	0.004479
280	C	0.113813	0.519865	0.002369
281	C	0.093188	0.543042	0.668252
282	C	0.118049	0.586777	0.66931
283	H	0.507876	0.903544	0.99751
284	H	0.467344	0.830079	0.001929
285	H	0.39918	0.911625	0.672443
286	H	0.358616	0.838123	0.675193
287	H	0.413467	0.702361	0.984069
288	H	0.306025	0.712167	0.984348
289	H	0.296146	0.594797	0.984519
290	H	0.178199	0.638083	0.673205
291	H	0.487071	0.650167	0.674458
292	H	0.520093	0.609753	0.67152
293	H	0.403327	0.500739	0.997661
294	H	0.370326	0.541129	0.002275
295	H	0.104687	0.604924	0.670025
296	H	0.097383	0.488235	0.000958
297	H	0.170798	0.521415	0.005148
298	H	0.418545	0.646468	0.698207
299	H	0.364058	0.597799	0.959501
300	H	0.36229	0.773118	0.698539
301	H	0.410333	0.767296	0.959165
302	H	0.235417	0.589996	0.698959
303	H	0.240916	0.644097	0.959934
304	C	0.552951	0.091227	0.669663
305	C	0.536298	0.115754	0.987464
306	C	0.559007	0.159269	0.990089
307	C	0.599685	0.180144	0.674343
308	C	0.616461	0.155798	0.689822
309	C	0.593568	0.112283	0.687549
310	C	0.62276	0.22318	0.678467
311	C	0.623675	0.250187	0.981218
312	C	0.647773	0.292903	0.985392
313	C	0.691439	0.312588	0.986685
314	C	0.716454	0.356274	0.986607
315	C	0.696621	0.380178	0.984553
316	C	0.653019	0.361313	0.983794
317	C	0.628954	0.317624	0.9837
318	C	0.634518	0.385455	0.979174
319	C	0.608	0.386037	0.676062
320	C	0.588066	0.409118	0.005333
321	C	0.54694	0.392259	0.687522
322	C	0.607926	0.449941	0.988065
323	C	0.587182	0.4727	0.985802
324	C	0.546	0.455952	0.668054
325	C	0.526378	0.415188	0.685608
326	C	0.759432	0.374257	0.984637
327	C	0.786605	0.408877	0.673205
328	C	0.829204	0.426198	0.003369
329	C	0.849197	0.404893	0.685488
330	C	0.85374	0.466754	0.986513
331	C	0.89712	0.485332	0.98469
332	C	0.91758	0.464405	0.667084
333	C	0.892616	0.423752	0.684087
334	H	0.50687	0.10218	0.974916
335	H	0.545166	0.175528	0.97958
336	H	0.607175	0.096156	0.699184
337	H	0.645686	0.169577	0.703072
338	H	0.597371	0.303659	0.981343
339	H	0.705236	0.294746	0.98651
340	H	0.714146	0.411789	0.982608
341	H	0.832335	0.375668	0.698499
342	H	0.531449	0.362944	0.700594
343	H	0.496646	0.401501	0.697266
344	H	0.603076	0.502231	0.973482
345	H	0.638034	0.46386	0.977572
346	H	0.905776	0.40723	0.695792
347	H	0.913655	0.514897	0.972589
348	H	0.840238	0.483202	0.975463
349	H	0.601131	0.367847	0.702938
350	H	0.641604	0.403005	0.951828
351	H	0.640675	0.234543	0.70552
352	H	0.606417	0.239529	0.953688
353	H	0.776211	0.423706	0.692112
354	H	0.770612	0.359969	0.9659
355	C	0.469239	0.488733	0.690078
356	N	0.489396	0.466943	0.689725
357	C	0.525363	0.479485	0.66699
358	N	0.541082	0.515761	0.97727
359	C	0.522558	0.539123	0.976306
360	C	0.485191	0.526606	0.999827
361	H	0.44291	0.477541	0.708871
362	H	0.536142	0.565699	0.957728
363	C	0.520103	0.981453	0.690732
364	N	0.541925	0.023433	0.690689
365	C	0.529435	0.047034	0.668226
366	N	0.4932	0.026638	0.978452
367	C	0.469806	0.984734	0.977189
368	C	0.482257	0.959706	0.000448
369	H	0.531233	0.96616	0.709351
370	H	0.443243	0.971864	0.958624
371	C	0.023574	0.486223	0.691706
372	N	0.981762	0.46828	0.690732
373	C	0.961677	0.483874	0.666668
374	N	0.985508	0.519193	0.976303
375	C	0.027465	0.538746	0.975883
376	C	0.048897	0.522988	0.00069
377	H	0.036151	0.472948	0.711409
378	H	0.043013	0.564779	0.95668
