data_C162H81N45O18_2018-02-15_10:42:27
#******************************************
#
# CIF file created by Zeo++
# Zeo++ is an open source package to
# analyze microporous materials
#
#*******************************************

_cell_length_a		29.4407   
_cell_length_b		29.4409   
_cell_length_c		29.9708   
_cell_angle_alpha		90   
_cell_angle_beta		90   
_cell_angle_gamma		120   

_symmetry_space_group_name_H-M		'P1'
_symmetry_Int_Tables_number		1
_symmetry_cell_setting		Monoclinic

loop_
_symmetry_equiv_pos_as_xyz
'+x,+y,+z'

loop_
_atom_site_label
_atom_site_type_symbol
_atom_site_fract_x
_atom_site_fract_y
_atom_site_fract_z
1	C	0.360051	0.72118	0.000358
2	N	0.386665	0.694455	0.000365
3	C	0.362114	0.641177	0.000358
4	N	0.308773	0.614562	0.000375
5	C	0.280046	0.639114	0.000365
6	N	0.306774	0.692455	0.000372
7	C	0.391086	0.614311	0.000527
8	C	0.444642	0.639981	0.988036
9	C	0.473102	0.613252	0.987866
10	C	0.449382	0.560025	0.000942
11	C	0.396088	0.534574	0.014092
12	C	0.367354	0.560986	0.013392
13	C	0.386911	0.777015	0.000523
14	C	0.440242	0.806615	0.013378
15	C	0.466644	0.86176	0.014098
16	C	0.441189	0.889599	0.000947
17	C	0.387961	0.860089	0.987873
18	C	0.361237	0.804901	0.988043
19	C	0.224209	0.610138	0.000541
20	C	0.194614	0.633866	0.013411
21	C	0.139468	0.605137	0.014107
22	C	0.111626	0.551843	0.000956
23	C	0.141134	0.528123	0.98788
24	C	0.196323	0.556577	0.988066
25	H	0.505227	0.881429	0.023564
26	H	0.460432	0.78835	0.023132
27	H	0.367559	0.878437	0.979061
28	H	0.32274	0.785326	0.978367
29	H	0.212881	0.67233	0.023138
30	H	0.119799	0.624049	0.023577
31	H	0.215894	0.537661	0.97837
32	H	0.122782	0.489372	0.979071
33	H	0.328901	0.540803	0.023151
34	H	0.377178	0.495997	0.023579
35	H	0.511847	0.633643	0.979041
36	H	0.463563	0.678472	0.97835
37	C	0.640138	0.279694	0.000248
38	N	0.614889	0.307753	0.000318
39	C	0.64054	0.361087	0.000252
40	N	0.693851	0.386338	0.000328
41	C	0.72153	0.360686	0.000262
42	N	0.693471	0.307375	0.000328
43	C	0.612782	0.389277	0.000984
44	C	0.55764	0.363006	0.006762
45	C	0.530304	0.390802	0.008312
46	C	0.557028	0.446025	0.004159
47	C	0.611862	0.472354	0.997262
48	C	0.639249	0.444562	0.996124
49	C	0.611942	0.223744	0.000986
50	C	0.556662	0.194934	0.996128
51	C	0.52886	0.139752	0.997285
52	C	0.555186	0.111245	0.004171
53	C	0.610411	0.13974	0.008324
54	C	0.638212	0.194872	0.006767
55	C	0.777482	0.388442	0.001004
56	C	0.806294	0.361971	0.996154
57	C	0.861477	0.389357	0.997305
58	C	0.889979	0.444194	0.004176
59	C	0.861483	0.470915	0.008356
60	C	0.80635	0.443582	0.006781
61	H	0.488902	0.120561	0.993919
62	H	0.535753	0.213774	0.991506
63	H	0.631186	0.120592	0.011707
64	H	0.678123	0.213624	0.010157
65	H	0.787457	0.322224	0.991536
66	H	0.88067	0.368594	0.993935
67	H	0.787596	0.464741	0.01016
68	H	0.880628	0.510842	0.011699
69	H	0.678996	0.465471	0.991503
70	H	0.632626	0.512313	0.993909
71	H	0.490381	0.370025	0.011702
72	H	0.536485	0.323095	0.010156
73	C	0.52965	0.474402	0.00519
74	N	0.54093	0.511567	0.306716
75	C	0.517168	0.540779	0.303795
76	C	0.477779	0.532562	0.001613
77	N	0.467078	0.495816	0.033641
78	C	0.490937	0.466502	0.03724
79	H	0.527174	0.567026	0.278231
80	N	0.478739	0.431509	0.073275
81	O	0.430692	0.398105	0.073201
82	O	0.489333	0.455991	0.1096
83	C	0.526803	0.055491	0.005209
84	N	0.489632	0.029606	0.306741
85	C	0.46038	0.97663	0.303842
86	C	0.468638	0.945458	0.00163
87	N	0.505393	0.9715	0.033652
88	C	0.534703	0.024676	0.037256
89	H	0.434201	0.960393	0.278233
90	N	0.569707	0.04747	0.073286
91	O	0.603113	0.032829	0.073201
92	O	0.545232	0.033579	0.109615
93	C	0.945733	0.471566	0.005214
94	N	0.971619	0.460282	0.306743
95	C	0.024595	0.484022	0.303835
96	C	0.055767	0.52344	0.001633
97	N	0.029723	0.534147	0.033659
98	C	0.976552	0.510277	0.037264
99	H	0.040829	0.474052	0.278242
100	N	0.953753	0.52249	0.073288
101	O	0.968397	0.57054	0.073198
102	O	0.967642	0.511912	0.10962
103	C	0.360051	0.72118	0.333692
104	N	0.386665	0.694455	0.333702
105	C	0.362114	0.641177	0.333695
106	N	0.308773	0.614562	0.333709
107	C	0.280046	0.639114	0.333699
108	N	0.306774	0.692455	0.333705
109	C	0.391086	0.614311	0.333859
110	C	0.444642	0.639981	0.32137
111	C	0.473102	0.613252	0.321201
112	C	0.449382	0.560025	0.334276
113	C	0.396088	0.534574	0.347425
114	C	0.367354	0.560986	0.346725
115	C	0.386911	0.777015	0.333855
116	C	0.440242	0.806615	0.346711
117	C	0.466644	0.86176	0.347432
118	C	0.441189	0.889599	0.334279
119	C	0.387961	0.860089	0.321209
120	C	0.361237	0.804901	0.321379
121	C	0.224209	0.610138	0.333875
122	C	0.194614	0.633866	0.346745
123	C	0.139468	0.605137	0.347439
124	C	0.111626	0.551843	0.334289
125	C	0.141134	0.528123	0.321213
126	C	0.196323	0.556577	0.321401
127	H	0.505227	0.881429	0.356898
128	H	0.460432	0.78835	0.356464
129	H	0.367559	0.878437	0.312395
130	H	0.32274	0.785326	0.311701
131	H	0.212881	0.67233	0.356471
132	H	0.119799	0.624049	0.356908
133	H	0.215894	0.537661	0.311704
134	H	0.122782	0.489372	0.312404
135	H	0.328901	0.540803	0.356484
136	H	0.377178	0.495997	0.356911
137	H	0.511847	0.633643	0.312374
138	H	0.463563	0.678472	0.311685
139	C	0.640138	0.279694	0.333583
140	N	0.614889	0.307753	0.333651
141	C	0.64054	0.361087	0.333585
142	N	0.693851	0.386338	0.333662
143	C	0.72153	0.360686	0.333597
144	N	0.693471	0.307375	0.333662
145	C	0.612782	0.389277	0.334316
146	C	0.55764	0.363006	0.340095
147	C	0.530304	0.390802	0.341646
148	C	0.557028	0.446025	0.337492
149	C	0.611862	0.472354	0.330597
150	C	0.639249	0.444562	0.329457
151	C	0.611942	0.223744	0.334319
152	C	0.556662	0.194934	0.329462
153	C	0.52886	0.139752	0.330619
154	C	0.555186	0.111245	0.337502
155	C	0.610411	0.13974	0.341656
156	C	0.638212	0.194872	0.340101
157	C	0.777482	0.388442	0.334336
158	C	0.806294	0.361971	0.329488
159	C	0.861477	0.389357	0.330639
160	C	0.889979	0.444194	0.337509
161	C	0.861483	0.470915	0.34169
162	C	0.80635	0.443582	0.340115
163	H	0.488902	0.120561	0.327253
164	H	0.535753	0.213774	0.324842
165	H	0.631186	0.120592	0.34504
166	H	0.678123	0.213624	0.343491
167	H	0.787457	0.322224	0.324871
168	H	0.88067	0.368594	0.32727
169	H	0.787596	0.464741	0.343491
170	H	0.880628	0.510842	0.345033
171	H	0.678996	0.465471	0.324837
172	H	0.632626	0.512313	0.327244
173	H	0.490381	0.370025	0.345036
174	H	0.536485	0.323095	0.343488
175	C	0.52965	0.474402	0.338523
176	N	0.54093	0.511567	0.640051
177	C	0.517168	0.540779	0.637128
178	C	0.477779	0.532562	0.334946
179	N	0.467078	0.495816	0.366974
180	C	0.490937	0.466502	0.370575
181	H	0.527174	0.567026	0.611563
182	N	0.478739	0.431509	0.406606
183	O	0.430692	0.398105	0.406533
184	O	0.489333	0.455991	0.442932
185	C	0.526803	0.055491	0.338543
186	N	0.489632	0.029606	0.640074
187	C	0.46038	0.97663	0.637174
188	C	0.468638	0.945458	0.334963
189	N	0.505393	0.9715	0.366984
190	C	0.534703	0.024676	0.370588
191	H	0.434201	0.960393	0.611566
192	N	0.569707	0.04747	0.40662
193	O	0.603113	0.032829	0.406533
194	O	0.545232	0.033579	0.442948
195	C	0.945733	0.471566	0.338547
196	N	0.971619	0.460282	0.640077
197	C	0.024595	0.484022	0.637168
198	C	0.055767	0.52344	0.334966
199	N	0.029723	0.534147	0.366991
200	C	0.976552	0.510277	0.370598
201	H	0.040829	0.474052	0.611576
202	N	0.953753	0.52249	0.40662
203	O	0.968397	0.57054	0.406533
204	O	0.967642	0.511912	0.442952
205	C	0.360051	0.72118	0.667023
206	N	0.386665	0.694455	0.667033
207	C	0.362114	0.641177	0.667027
208	N	0.308773	0.614562	0.66704
209	C	0.280046	0.639114	0.66703
210	N	0.306774	0.692455	0.66704
211	C	0.391086	0.614311	0.667194
212	C	0.444642	0.639981	0.654701
213	C	0.473102	0.613252	0.654535
214	C	0.449382	0.560025	0.667607
215	C	0.396088	0.534574	0.680757
216	C	0.367354	0.560986	0.680059
217	C	0.386911	0.777015	0.66719
218	C	0.440242	0.806615	0.680043
219	C	0.466644	0.86176	0.680764
220	C	0.441189	0.889599	0.667614
221	C	0.387961	0.860089	0.654541
222	C	0.361237	0.804901	0.654711
223	C	0.224209	0.610138	0.667207
224	C	0.194614	0.633866	0.680076
225	C	0.139468	0.605137	0.680774
226	C	0.111626	0.551843	0.667621
227	C	0.141134	0.528123	0.654545
228	C	0.196323	0.556577	0.654735
229	H	0.505227	0.881429	0.690229
230	H	0.460432	0.78835	0.689799
231	H	0.367559	0.878437	0.645729
232	H	0.32274	0.785326	0.645035
233	H	0.212881	0.67233	0.689806
234	H	0.119799	0.624049	0.690243
235	H	0.215894	0.537661	0.645035
236	H	0.122782	0.489372	0.645736
237	H	0.328901	0.540803	0.689816
238	H	0.377178	0.495997	0.690243
239	H	0.511847	0.633643	0.645706
240	H	0.463563	0.678472	0.645019
241	C	0.640138	0.279694	0.666917
242	N	0.614889	0.307753	0.666983
243	C	0.64054	0.361087	0.66692
244	N	0.693851	0.386338	0.666993
245	C	0.72153	0.360686	0.66693
246	N	0.693471	0.307375	0.666993
247	C	0.612782	0.389277	0.667651
248	C	0.55764	0.363006	0.673426
249	C	0.530304	0.390802	0.674978
250	C	0.557028	0.446025	0.670824
251	C	0.611862	0.472354	0.66393
252	C	0.639249	0.444562	0.662789
253	C	0.611942	0.223744	0.667651
254	C	0.556662	0.194934	0.662796
255	C	0.52886	0.139752	0.66395
256	C	0.555186	0.111245	0.670837
257	C	0.610411	0.13974	0.674991
258	C	0.638212	0.194872	0.673433
259	C	0.777482	0.388442	0.667671
260	C	0.806294	0.361971	0.662823
261	C	0.861477	0.389357	0.66397
262	C	0.889979	0.444194	0.670841
263	C	0.861483	0.470915	0.675021
264	C	0.80635	0.443582	0.673446
265	H	0.488902	0.120561	0.660587
266	H	0.535753	0.213774	0.658175
267	H	0.631186	0.120592	0.678375
268	H	0.678123	0.213624	0.676823
269	H	0.787457	0.322224	0.658205
270	H	0.88067	0.368594	0.660604
271	H	0.787596	0.464741	0.676826
272	H	0.880628	0.510842	0.678365
273	H	0.678996	0.465471	0.658171
274	H	0.632626	0.512313	0.660577
275	H	0.490381	0.370025	0.678368
276	H	0.536485	0.323095	0.676823
277	C	0.52965	0.474402	0.671855
278	N	0.54093	0.511567	0.973382
279	C	0.517168	0.540779	0.970459
280	C	0.477779	0.532562	0.668278
281	N	0.467078	0.495816	0.700306
282	C	0.490937	0.466502	0.703906
283	H	0.527174	0.567026	0.944898
284	N	0.478739	0.431509	0.739941
285	O	0.430692	0.398105	0.739868
286	O	0.489333	0.455991	0.776267
287	C	0.526803	0.055491	0.671875
288	N	0.489632	0.029606	0.973409
289	C	0.46038	0.97663	0.970509
290	C	0.468638	0.945458	0.668295
291	N	0.505393	0.9715	0.700319
292	C	0.534703	0.024676	0.703923
293	H	0.434201	0.960393	0.944898
294	N	0.569707	0.04747	0.739951
295	O	0.603113	0.032829	0.739868
296	O	0.545232	0.033579	0.77628
297	C	0.945733	0.471566	0.671882
298	N	0.971619	0.460282	0.973409
299	C	0.024595	0.484022	0.970503
300	C	0.055767	0.52344	0.668298
301	N	0.029723	0.534147	0.700326
302	C	0.976552	0.510277	0.703929
303	H	0.040829	0.474052	0.944908
304	N	0.953753	0.52249	0.739955
305	O	0.968397	0.57054	0.739864
306	O	0.967642	0.511912	0.776287
