data_C171H108N36O9_2018-02-15_10:42:25
#******************************************
#
# CIF file created by Zeo++
# Zeo++ is an open source package to
# analyze microporous materials
#
#*******************************************

_cell_length_a		29.4249   
_cell_length_b		29.4249   
_cell_length_c		29.9574   
_cell_angle_alpha		90   
_cell_angle_beta		90   
_cell_angle_gamma		120   

_symmetry_space_group_name_H-M		'P1'
_symmetry_Int_Tables_number		1
_symmetry_cell_setting		Monoclinic

loop_
_symmetry_equiv_pos_as_xyz
'+x,+y,+z'

loop_
_atom_site_label
_atom_site_type_symbol
_atom_site_fract_x
_atom_site_fract_y
_atom_site_fract_z
1	H	0.01542	0.567848	0.098732
2	H	0.01542	0.567848	0.432067
3	H	0.01542	0.567848	0.7654
4	C	0.361604	0.721568	0.999689
5	N	0.386932	0.693533	0.999759
6	C	0.361387	0.640176	0.999692
7	N	0.308024	0.614845	0.999752
8	C	0.280211	0.640391	0.999682
9	N	0.308245	0.693753	0.999752
10	C	0.389258	0.612035	0.00036
11	C	0.444847	0.638543	0.002251
12	C	0.472256	0.610728	0.003571
13	C	0.444961	0.55531	0.003602
14	C	0.389669	0.528563	0.000624
15	C	0.362344	0.556425	0.999258
16	C	0.389741	0.777579	0.000367
17	C	0.44535	0.806276	0.999265
18	C	0.473209	0.861463	0.000644
19	C	0.44646	0.890008	0.003621
20	C	0.391042	0.861879	0.003584
21	C	0.363231	0.806657	0.002261
22	C	0.224201	0.612521	0.000353
23	C	0.195504	0.639434	0.999255
24	C	0.140318	0.612109	0.000637
25	C	0.111772	0.556817	0.003622
26	C	0.139896	0.529524	0.003563
27	C	0.195118	0.556931	0.00224
28	H	0.513286	0.880613	0.998751
29	H	0.466511	0.787381	0.997262
30	H	0.370407	0.881367	0.005373
31	H	0.323125	0.787993	0.002955
32	H	0.214403	0.679492	0.997262
33	H	0.121171	0.633041	0.998761
34	H	0.213777	0.535485	0.00294
35	H	0.120406	0.489403	0.005366
36	H	0.322286	0.535265	0.997265
37	H	0.368738	0.488484	0.998748
38	H	0.51238	0.631362	0.005356
39	H	0.466293	0.678649	0.002945
40	C	0.639999	0.279974	0.001018
41	N	0.615096	0.308402	0.001016
42	C	0.641399	0.361777	0.001019
43	N	0.694728	0.386682	0.001029
44	C	0.721802	0.360379	0.001032
45	N	0.693375	0.307047	0.001029
46	C	0.614166	0.390424	0.001078
47	C	0.560837	0.366444	0.014094
48	C	0.534052	0.394868	0.014638
49	C	0.559108	0.448045	0.001109
50	C	0.612327	0.472014	0.987869
51	C	0.639448	0.443897	0.988266
52	C	0.611352	0.224096	0.001077
53	C	0.557882	0.195905	0.988249
54	C	0.529758	0.140669	0.987875
55	C	0.553722	0.111416	0.001118
56	C	0.606894	0.139536	0.014657
57	C	0.635324	0.194743	0.014107
58	C	0.77768	0.387608	0.001105
59	C	0.805876	0.362329	0.988296
60	C	0.861114	0.389446	0.987916
61	C	0.89036	0.442665	0.001151
62	C	0.862235	0.467713	0.014699
63	C	0.807029	0.440938	0.014127
64	H	0.491074	0.122082	0.978759
65	H	0.538795	0.21528	0.978425
66	H	0.625949	0.12004	0.024282
67	H	0.673714	0.213225	0.024111
68	H	0.786503	0.323868	0.978469
69	H	0.879705	0.369356	0.978803
70	H	0.788543	0.46085	0.024105
71	H	0.88173	0.506281	0.024273
72	H	0.677909	0.462985	0.978442
73	H	0.632424	0.510699	0.978773
74	H	0.495503	0.375813	0.024259
75	H	0.540928	0.328052	0.024091
76	C	0.472793	0.527534	0.00493
77	N	0.509284	0.538279	0.305944
78	C	0.538635	0.514628	0.30309
79	C	0.531305	0.476119	0.001562
80	N	0.495276	0.466183	0.034118
81	C	0.465734	0.489736	0.037794
82	H	0.564396	0.524112	0.277187
83	C	0.430982	0.476539	0.077364
84	O	0.442638	0.521954	0.103391
85	H	0.433945	0.447931	0.09871
86	H	0.390315	0.458393	0.066365
87	H	0.477928	0.535932	0.116314
88	C	0.474228	0.94561	0.004949
89	N	0.463489	0.971357	0.305959
90	C	0.487121	0.02436	0.303118
91	C	0.525637	0.055539	0.001582
92	N	0.535566	0.029451	0.034146
93	C	0.511997	0.976357	0.037835
94	H	0.47768	0.040631	0.277182
95	C	0.525227	0.954797	0.077381
96	O	0.479827	0.920997	0.103408
97	H	0.553824	0.986363	0.098735
98	H	0.543397	0.932307	0.066356
99	H	0.465828	0.942279	0.116354
100	C	0.056167	0.528986	0.004954
101	N	0.030416	0.492495	0.305969
102	C	0.977413	0.463146	0.303118
103	C	0.946241	0.470476	0.001594
104	N	0.972335	0.506508	0.034146
105	C	0.02543	0.536054	0.037817
106	H	0.961131	0.437379	0.277217
107	C	0.046988	0.570807	0.077385
108	O	0.08075	0.559156	0.103411
109	H	0.06951	0.611474	0.066382
110	H	0.059437	0.523865	0.116338
111	C	0.361604	0.721568	0.333022
112	N	0.386932	0.693533	0.333092
113	C	0.361387	0.640176	0.333024
114	N	0.308024	0.614845	0.333086
115	C	0.280211	0.640391	0.333014
116	N	0.308245	0.693753	0.333086
117	C	0.389258	0.612035	0.333694
118	C	0.444847	0.638543	0.335586
119	C	0.472256	0.610728	0.336905
120	C	0.444961	0.55531	0.336935
121	C	0.389669	0.528563	0.333954
122	C	0.362344	0.556425	0.332592
123	C	0.389741	0.777579	0.333698
124	C	0.44535	0.806276	0.332597
125	C	0.473209	0.861463	0.333974
126	C	0.44646	0.890008	0.336955
127	C	0.391042	0.861879	0.336918
128	C	0.363231	0.806657	0.335596
129	C	0.224201	0.612521	0.333687
130	C	0.195504	0.639434	0.332586
131	C	0.140318	0.612109	0.333971
132	C	0.111772	0.556817	0.336955
133	C	0.139896	0.529524	0.336898
134	C	0.195118	0.556931	0.335573
135	H	0.513286	0.880613	0.332085
136	H	0.466511	0.787381	0.330594
137	H	0.370407	0.881367	0.338707
138	H	0.323125	0.787993	0.336287
139	H	0.214403	0.679492	0.330595
140	H	0.121171	0.633041	0.332094
141	H	0.213777	0.535485	0.336274
142	H	0.120406	0.489403	0.338701
143	H	0.322286	0.535265	0.330598
144	H	0.368738	0.488484	0.332081
145	H	0.51238	0.631362	0.338691
146	H	0.466293	0.678649	0.336281
147	C	0.639999	0.279974	0.334351
148	N	0.615096	0.308402	0.334351
149	C	0.641399	0.361777	0.334355
150	N	0.694728	0.386682	0.334361
151	C	0.721802	0.360379	0.334365
152	N	0.693375	0.307047	0.334361
153	C	0.614166	0.390424	0.334411
154	C	0.560837	0.366444	0.347426
155	C	0.534052	0.394868	0.347971
156	C	0.559108	0.448045	0.334441
157	C	0.612327	0.472014	0.3212
158	C	0.639448	0.443897	0.321597
159	C	0.611352	0.224096	0.334411
160	C	0.557882	0.195905	0.321581
161	C	0.529758	0.140669	0.321208
162	C	0.553722	0.111416	0.334451
163	C	0.606894	0.139536	0.347991
164	C	0.635324	0.194743	0.34744
165	C	0.77768	0.387608	0.334438
166	C	0.805876	0.362329	0.321627
167	C	0.861114	0.389446	0.321249
168	C	0.89036	0.442665	0.334485
169	C	0.862235	0.467713	0.348031
170	C	0.807029	0.440938	0.34746
171	H	0.491074	0.122082	0.312093
172	H	0.538795	0.21528	0.311759
173	H	0.625949	0.12004	0.357614
174	H	0.673714	0.213225	0.357444
175	H	0.786503	0.323868	0.311802
176	H	0.879705	0.369356	0.312134
177	H	0.788543	0.46085	0.357437
178	H	0.88173	0.506281	0.357608
179	H	0.677909	0.462985	0.311775
180	H	0.632424	0.510699	0.312107
181	H	0.495503	0.375813	0.357594
182	H	0.540928	0.328052	0.357424
183	C	0.472793	0.527534	0.338263
184	N	0.509284	0.538279	0.639277
185	C	0.538635	0.514628	0.636423
186	C	0.531305	0.476119	0.334895
187	N	0.495276	0.466183	0.367452
188	C	0.465734	0.489736	0.371127
189	H	0.564396	0.524112	0.61052
190	C	0.430982	0.476539	0.410696
191	O	0.442638	0.521954	0.436723
192	H	0.433945	0.447931	0.432043
193	H	0.390315	0.458393	0.399697
194	H	0.477928	0.535932	0.449648
195	C	0.474228	0.94561	0.338283
196	N	0.463489	0.971357	0.639294
197	C	0.487121	0.02436	0.636453
198	C	0.525637	0.055539	0.334915
199	N	0.535566	0.029451	0.367482
200	C	0.511997	0.976357	0.371167
201	H	0.47768	0.040631	0.610517
202	C	0.525227	0.954797	0.410716
203	O	0.479827	0.920997	0.436743
204	H	0.553824	0.986363	0.43207
205	H	0.543397	0.932307	0.399691
206	H	0.465828	0.942279	0.449688
207	C	0.056167	0.528986	0.338287
208	N	0.030416	0.492495	0.639304
209	C	0.977413	0.463146	0.63645
210	C	0.946241	0.470476	0.334929
211	N	0.972335	0.506508	0.367478
212	C	0.02543	0.536054	0.37115
213	H	0.961131	0.437379	0.61055
214	C	0.046988	0.570807	0.41072
215	O	0.08075	0.559156	0.436747
216	H	0.06951	0.611474	0.399714
217	H	0.059437	0.523865	0.449672
218	C	0.361604	0.721568	0.666356
219	N	0.386932	0.693533	0.666426
220	C	0.361387	0.640176	0.666356
221	N	0.308024	0.614845	0.666419
222	C	0.280211	0.640391	0.666349
223	N	0.308245	0.693753	0.666419
224	C	0.389258	0.612035	0.667027
225	C	0.444847	0.638543	0.668919
226	C	0.472256	0.610728	0.670238
227	C	0.444961	0.55531	0.670268
228	C	0.389669	0.528563	0.66729
229	C	0.362344	0.556425	0.665925
230	C	0.389741	0.777579	0.66703
231	C	0.44535	0.806276	0.665932
232	C	0.473209	0.861463	0.667307
233	C	0.44646	0.890008	0.670288
234	C	0.391042	0.861879	0.670251
235	C	0.363231	0.806657	0.668929
236	C	0.224201	0.612521	0.66702
237	C	0.195504	0.639434	0.665918
238	C	0.140318	0.612109	0.667304
239	C	0.111772	0.556817	0.670288
240	C	0.139896	0.529524	0.670231
241	C	0.195118	0.556931	0.668906
242	H	0.513286	0.880613	0.665418
243	H	0.466511	0.787381	0.663926
244	H	0.370407	0.881367	0.672041
245	H	0.323125	0.787993	0.66962
246	H	0.214403	0.679492	0.663929
247	H	0.121171	0.633041	0.665428
248	H	0.213777	0.535485	0.669607
249	H	0.120406	0.489403	0.672034
250	H	0.322286	0.535265	0.663932
251	H	0.368738	0.488484	0.665414
252	H	0.51238	0.631362	0.672024
253	H	0.466293	0.678649	0.669614
254	C	0.639999	0.279974	0.667684
255	N	0.615096	0.308402	0.667684
256	C	0.641399	0.361777	0.667688
257	N	0.694728	0.386682	0.667698
258	C	0.721802	0.360379	0.667698
259	N	0.693375	0.307047	0.667694
260	C	0.614166	0.390424	0.667744
261	C	0.560837	0.366444	0.68076
262	C	0.534052	0.394868	0.681307
263	C	0.559108	0.448045	0.667774
264	C	0.612327	0.472014	0.654532
265	C	0.639448	0.443897	0.65493
266	C	0.611352	0.224096	0.667744
267	C	0.557882	0.195905	0.654916
268	C	0.529758	0.140669	0.654542
269	C	0.553722	0.111416	0.667784
270	C	0.606894	0.139536	0.681324
271	C	0.635324	0.194743	0.680773
272	C	0.77768	0.387608	0.667771
273	C	0.805876	0.362329	0.65496
274	C	0.861114	0.389446	0.654582
275	C	0.89036	0.442665	0.667818
276	C	0.862235	0.467713	0.681367
277	C	0.807029	0.440938	0.680793
278	H	0.491074	0.122082	0.645426
279	H	0.538795	0.21528	0.645092
280	H	0.625949	0.12004	0.690947
281	H	0.673714	0.213225	0.690777
282	H	0.786503	0.323868	0.645136
283	H	0.879705	0.369356	0.645466
284	H	0.788543	0.46085	0.690774
285	H	0.88173	0.506281	0.690941
286	H	0.677909	0.462985	0.645109
287	H	0.632424	0.510699	0.645439
288	H	0.495503	0.375813	0.690927
289	H	0.540928	0.328052	0.690757
290	C	0.472793	0.527534	0.671597
291	N	0.509284	0.538279	0.97261
292	C	0.538635	0.514628	0.969756
293	C	0.531305	0.476119	0.668228
294	N	0.495276	0.466183	0.700785
295	C	0.465734	0.489736	0.70446
296	H	0.564396	0.524112	0.943853
297	C	0.430982	0.476539	0.744033
298	O	0.442638	0.521954	0.77006
299	H	0.433945	0.447931	0.765376
300	H	0.390315	0.458393	0.73303
301	H	0.477928	0.535932	0.782981
302	C	0.474228	0.94561	0.671617
303	N	0.463489	0.971357	0.972627
304	C	0.487121	0.02436	0.969786
305	C	0.525637	0.055539	0.668248
306	N	0.535566	0.029451	0.700815
307	C	0.511997	0.976357	0.704503
308	H	0.47768	0.040631	0.94385
309	C	0.525227	0.954797	0.744049
310	O	0.479827	0.920997	0.770076
311	H	0.553824	0.986363	0.765403
312	H	0.543397	0.932307	0.733024
313	H	0.465828	0.942279	0.783021
314	C	0.056167	0.528986	0.67162
315	N	0.030416	0.492495	0.972637
316	C	0.977413	0.463146	0.969786
317	C	0.946241	0.470476	0.668262
318	N	0.972335	0.506508	0.700815
319	C	0.02543	0.536054	0.704483
320	H	0.961131	0.437379	0.943883
321	C	0.046988	0.570807	0.744053
322	O	0.08075	0.559156	0.77008
323	H	0.06951	0.611474	0.73305
324	H	0.059437	0.523865	0.783005
