data_C180H126N36_2018-02-15_10:42:24
#******************************************
#
# CIF file created by Zeo++
# Zeo++ is an open source package to
# analyze microporous materials
#
#*******************************************

_cell_length_a		29.3519   
_cell_length_b		29.3519   
_cell_length_c		29.8776   
_cell_angle_alpha		90   
_cell_angle_beta		90   
_cell_angle_gamma		120   

_symmetry_space_group_name_H-M		'P1'
_symmetry_Int_Tables_number		1
_symmetry_cell_setting		Monoclinic

loop_
_symmetry_equiv_pos_as_xyz
'+x,+y,+z'

loop_
_atom_site_label
_atom_site_type_symbol
_atom_site_fract_x
_atom_site_fract_y
_atom_site_fract_z
1	N	0.03154	0.516281	0.296866
2	C	0.027898	0.514463	0.043119
3	H	0.021434	0.511229	0.1143
4	N	0.03154	0.516281	0.630198
5	C	0.027898	0.514463	0.376453
6	H	0.021434	0.511229	0.447633
7	N	0.03154	0.516281	0.963532
8	C	0.027898	0.514463	0.709786
9	H	0.021434	0.511229	0.780967
10	C	0.05163	0.526328	0.08829
11	C	0.05163	0.526328	0.421624
12	C	0.05163	0.526328	0.754957
13	C	0.05781	0.529416	0.003115
14	C	0.05781	0.529416	0.33645
15	C	0.05781	0.529416	0.669783
16	C	0.363588	0.723074	0.000908
17	N	0.389066	0.695045	0.000925
18	C	0.363586	0.641535	0.000908
19	N	0.310079	0.616058	0.000925
20	C	0.282049	0.641535	0.000908
21	N	0.31008	0.695045	0.000925
22	C	0.391693	0.61343	0.001065
23	C	0.447498	0.640244	0.001216
24	C	0.475268	0.612632	0.001664
25	C	0.447958	0.557163	0.002042
26	C	0.392493	0.529857	0.001664
27	C	0.36488	0.557627	0.001216
28	C	0.391694	0.779287	0.001065
29	C	0.447498	0.808277	0.001212
30	C	0.475268	0.863659	0.001657
31	C	0.44796	0.891819	0.002039
32	C	0.392492	0.863659	0.001661
33	C	0.36488	0.808277	0.001216
34	C	0.225838	0.61343	0.001065
35	C	0.196847	0.640244	0.001216
36	C	0.141464	0.612632	0.001657
37	C	0.113306	0.557166	0.002036
38	C	0.141464	0.529857	0.001657
39	C	0.196847	0.557627	0.001212
40	H	0.515547	0.883231	0.001969
41	H	0.468859	0.789417	0.001139
42	H	0.371785	0.883231	0.001965
43	H	0.324659	0.789417	0.001135
44	H	0.215706	0.680465	0.001135
45	H	0.121891	0.633336	0.001965
46	H	0.215705	0.536265	0.001139
47	H	0.121891	0.489577	0.001965
48	H	0.32466	0.536265	0.001135
49	H	0.371785	0.489577	0.001965
50	H	0.515546	0.633336	0.001965
51	H	0.46886	0.680465	0.001135
52	C	0.642562	0.281025	0.003054
53	N	0.617084	0.309054	0.003024
54	C	0.642563	0.362561	0.003052
55	N	0.69607	0.38804	0.003023
56	C	0.724098	0.362561	0.003052
57	N	0.69607	0.309054	0.003024
58	C	0.614455	0.390667	0.00275
59	C	0.558651	0.36385	0.002471
60	C	0.530881	0.391459	0.001731
61	C	0.558198	0.446924	0.001219
62	C	0.613663	0.474242	0.001738
63	C	0.641274	0.446472	0.00247
64	C	0.614456	0.224814	0.002751
65	C	0.558653	0.195825	0.002468
66	C	0.530881	0.140446	0.001731
67	C	0.558198	0.112297	0.001219
68	C	0.613663	0.140446	0.001731
69	C	0.641271	0.195825	0.002471
70	C	0.780312	0.390667	0.002752
71	C	0.809299	0.363851	0.00247
72	C	0.864678	0.391459	0.001731
73	C	0.892827	0.446924	0.001222
74	C	0.864679	0.474242	0.001745
75	C	0.809298	0.446472	0.002473
76	H	0.490605	0.120876	0.001286
77	H	0.53729	0.214683	0.002611
78	H	0.634371	0.120876	0.001283
79	H	0.681493	0.214684	0.002606
80	H	0.79044	0.323631	0.002609
81	H	0.884248	0.370752	0.001283
82	H	0.79044	0.467834	0.002608
83	H	0.884248	0.514518	0.001283
84	H	0.681493	0.467834	0.002608
85	H	0.63437	0.514518	0.001286
86	H	0.490604	0.370751	0.001283
87	H	0.537291	0.323631	0.002605
88	C	0.526443	0.478676	0.247116
89	C	0.515499	0.48962	0.292985
90	H	0.489385	0.45526	0.2293
91	H	0.54789	0.457231	0.246703
92	H	0.549861	0.515738	0.2293
93	N	0.488839	0.516281	0.296868
94	C	0.475707	0.529416	0.003119
95	C	0.490664	0.514459	0.043121
96	C	0.478799	0.526324	0.088293
97	H	0.496911	0.568807	0.09261
98	H	0.493899	0.511229	0.114303
99	H	0.43632	0.508216	0.092611
100	N	0.517327	0.487798	0.039301
101	C	0.530468	0.474655	0.333043
102	C	0.526445	0.048791	0.247115
103	C	0.515501	0.026902	0.292985
104	H	0.549864	0.03515	0.2293
105	H	0.547891	0.091683	0.246703
106	H	0.489387	0.035149	0.229299
107	N	0.488843	0.973583	0.296867
108	C	0.475707	0.947312	0.003117
109	C	0.490663	0.977226	0.04312
110	C	0.478798	0.953496	0.088292
111	H	0.436317	0.929125	0.092609
112	H	0.493897	0.983693	0.114301
113	H	0.496908	0.929125	0.092609
114	N	0.517325	0.030552	0.039301
115	C	0.530468	0.056837	0.333042
116	C	0.956328	0.478676	0.247116
117	C	0.978218	0.48962	0.292985
118	H	0.969972	0.515734	0.2293
119	H	0.913438	0.457231	0.246705
120	H	0.969969	0.455257	0.2293
121	H	0.075999	0.508216	0.092607
122	H	0.075999	0.568807	0.092606
123	N	0.974572	0.487798	0.039301
124	C	0.948287	0.474655	0.333043
125	C	0.363588	0.723074	0.334243
126	N	0.389066	0.695045	0.334259
127	C	0.363586	0.641535	0.334243
128	N	0.310079	0.616058	0.334259
129	C	0.282049	0.641535	0.334242
130	N	0.31008	0.695045	0.334259
131	C	0.391693	0.61343	0.334399
132	C	0.447498	0.640244	0.33455
133	C	0.475268	0.612632	0.334997
134	C	0.447958	0.557163	0.335375
135	C	0.392493	0.529857	0.334997
136	C	0.36488	0.557627	0.334549
137	C	0.391694	0.779287	0.334398
138	C	0.447498	0.808277	0.334547
139	C	0.475268	0.863659	0.33499
140	C	0.44796	0.891819	0.335375
141	C	0.392492	0.863659	0.334997
142	C	0.36488	0.808277	0.334549
143	C	0.225838	0.61343	0.334398
144	C	0.196847	0.640244	0.334549
145	C	0.141464	0.612632	0.33499
146	C	0.113306	0.557166	0.335372
147	C	0.141464	0.529857	0.33499
148	C	0.196847	0.557627	0.334546
149	H	0.515547	0.883231	0.335302
150	H	0.468859	0.789417	0.334471
151	H	0.371785	0.883231	0.335302
152	H	0.324659	0.789417	0.33447
153	H	0.215706	0.680465	0.334469
154	H	0.121891	0.633336	0.335298
155	H	0.215705	0.536265	0.334472
156	H	0.121891	0.489577	0.335302
157	H	0.32466	0.536265	0.334471
158	H	0.371785	0.489577	0.335302
159	H	0.515546	0.633336	0.335298
160	H	0.46886	0.680465	0.334469
161	C	0.642562	0.281025	0.336386
162	N	0.617084	0.309054	0.336356
163	C	0.642563	0.362561	0.336386
164	N	0.69607	0.38804	0.336356
165	C	0.724098	0.362561	0.336386
166	N	0.69607	0.309054	0.336356
167	C	0.614455	0.390667	0.336085
168	C	0.558651	0.36385	0.335804
169	C	0.530881	0.391459	0.335064
170	C	0.558198	0.446924	0.334554
171	C	0.613663	0.474242	0.335071
172	C	0.641274	0.446472	0.335804
173	C	0.614456	0.224814	0.336085
174	C	0.558653	0.195825	0.3358
175	C	0.530881	0.140446	0.335067
176	C	0.558198	0.112297	0.334553
177	C	0.613663	0.140446	0.335064
178	C	0.641271	0.195825	0.335804
179	C	0.780312	0.390667	0.336085
180	C	0.809299	0.363851	0.335804
181	C	0.864678	0.391459	0.335067
182	C	0.892827	0.446924	0.334556
183	C	0.864679	0.474242	0.335077
184	C	0.809298	0.446472	0.335807
185	H	0.490605	0.120876	0.334621
186	H	0.53729	0.214683	0.335944
187	H	0.634371	0.120876	0.334617
188	H	0.681493	0.214684	0.335941
189	H	0.79044	0.323631	0.335941
190	H	0.884248	0.370752	0.334618
191	H	0.79044	0.467834	0.335941
192	H	0.884248	0.514518	0.334617
193	H	0.681493	0.467834	0.335941
194	H	0.63437	0.514518	0.334619
195	H	0.490604	0.370751	0.334616
196	H	0.537291	0.323631	0.335938
197	C	0.526443	0.478676	0.580449
198	C	0.515499	0.48962	0.626319
199	H	0.489385	0.45526	0.562633
200	H	0.54789	0.457231	0.580037
201	H	0.549861	0.515738	0.562633
202	N	0.488839	0.516281	0.630202
203	C	0.475707	0.529416	0.336453
204	C	0.490664	0.514459	0.376453
205	C	0.478799	0.526324	0.421627
206	H	0.496911	0.568807	0.425945
207	H	0.493899	0.511229	0.447637
208	H	0.43632	0.508216	0.425945
209	N	0.517327	0.487798	0.372634
210	C	0.530468	0.474655	0.666376
211	C	0.526445	0.048791	0.580449
212	C	0.515501	0.026902	0.626319
213	H	0.549864	0.03515	0.562633
214	H	0.547891	0.091683	0.580037
215	H	0.489387	0.035149	0.562633
216	N	0.488843	0.973583	0.630198
217	C	0.475707	0.947312	0.33645
218	C	0.490663	0.977226	0.376453
219	C	0.478798	0.953496	0.421624
220	H	0.436317	0.929125	0.425941
221	H	0.493897	0.983693	0.447633
222	H	0.496908	0.929125	0.425941
223	N	0.517325	0.030552	0.372634
224	C	0.530468	0.056837	0.666376
225	C	0.956328	0.478676	0.580449
226	C	0.978218	0.48962	0.626319
227	H	0.969972	0.515734	0.562633
228	H	0.913438	0.457231	0.580037
229	H	0.969969	0.455257	0.562633
230	H	0.075999	0.508216	0.425941
231	H	0.075999	0.568807	0.425938
232	N	0.974572	0.487798	0.372634
233	C	0.948287	0.474655	0.666376
234	C	0.363588	0.723074	0.667574
235	N	0.389066	0.695045	0.667591
236	C	0.363586	0.641535	0.667578
237	N	0.310079	0.616058	0.667591
238	C	0.282049	0.641535	0.667574
239	N	0.31008	0.695045	0.667591
240	C	0.391693	0.61343	0.667732
241	C	0.447498	0.640244	0.667882
242	C	0.475268	0.612632	0.668331
243	C	0.447958	0.557163	0.668709
244	C	0.392493	0.529857	0.668331
245	C	0.36488	0.557627	0.667882
246	C	0.391694	0.779287	0.667732
247	C	0.447498	0.808277	0.667879
248	C	0.475268	0.863659	0.668324
249	C	0.44796	0.891819	0.668705
250	C	0.392492	0.863659	0.668327
251	C	0.36488	0.808277	0.667882
252	C	0.225838	0.61343	0.667732
253	C	0.196847	0.640244	0.667882
254	C	0.141464	0.612632	0.668324
255	C	0.113306	0.557166	0.668702
256	C	0.141464	0.529857	0.668324
257	C	0.196847	0.557627	0.667879
258	H	0.515547	0.883231	0.668635
259	H	0.468859	0.789417	0.667805
260	H	0.371785	0.883231	0.668632
261	H	0.324659	0.789417	0.667802
262	H	0.215706	0.680465	0.667802
263	H	0.121891	0.633336	0.668632
264	H	0.215705	0.536265	0.667805
265	H	0.121891	0.489577	0.668635
266	H	0.32466	0.536265	0.667805
267	H	0.371785	0.489577	0.668632
268	H	0.515546	0.633336	0.668632
269	H	0.46886	0.680465	0.667802
270	C	0.642562	0.281025	0.66972
271	N	0.617084	0.309054	0.669689
272	C	0.642563	0.362561	0.669716
273	N	0.69607	0.38804	0.669689
274	C	0.724098	0.362561	0.669716
275	N	0.69607	0.309054	0.669689
276	C	0.614455	0.390667	0.669415
277	C	0.558651	0.36385	0.669137
278	C	0.530881	0.391459	0.668398
279	C	0.558198	0.446924	0.667885
280	C	0.613663	0.474242	0.668404
281	C	0.641274	0.446472	0.669137
282	C	0.614456	0.224814	0.669418
283	C	0.558653	0.195825	0.669134
284	C	0.530881	0.140446	0.668398
285	C	0.558198	0.112297	0.667885
286	C	0.613663	0.140446	0.668398
287	C	0.641271	0.195825	0.669137
288	C	0.780312	0.390667	0.669418
289	C	0.809299	0.363851	0.669137
290	C	0.864678	0.391459	0.668401
291	C	0.892827	0.446924	0.667889
292	C	0.864679	0.474242	0.668411
293	C	0.809298	0.446472	0.669141
294	H	0.490605	0.120876	0.667956
295	H	0.53729	0.214683	0.669278
296	H	0.634371	0.120876	0.667949
297	H	0.681493	0.214684	0.669271
298	H	0.79044	0.323631	0.669274
299	H	0.884248	0.370752	0.667952
300	H	0.79044	0.467834	0.669274
301	H	0.884248	0.514518	0.667949
302	H	0.681493	0.467834	0.669274
303	H	0.63437	0.514518	0.667952
304	H	0.490604	0.370751	0.667949
305	H	0.537291	0.323631	0.669271
306	C	0.526443	0.478676	0.913782
307	C	0.515499	0.48962	0.959653
308	H	0.489385	0.45526	0.895966
309	H	0.54789	0.457231	0.913371
310	H	0.549861	0.515738	0.895966
311	N	0.488839	0.516281	0.963535
312	C	0.475707	0.529416	0.669787
313	C	0.490664	0.514459	0.709786
314	C	0.478799	0.526324	0.754961
315	H	0.496911	0.568807	0.759275
316	H	0.493899	0.511229	0.78097
317	H	0.43632	0.508216	0.759278
318	N	0.517327	0.487798	0.705968
319	C	0.530468	0.474655	0.99971
320	C	0.526445	0.048791	0.913782
321	C	0.515501	0.026902	0.959649
322	H	0.549864	0.03515	0.895966
323	H	0.547891	0.091683	0.913371
324	H	0.489387	0.035149	0.895966
325	N	0.488843	0.973583	0.963532
326	C	0.475707	0.947312	0.669783
327	C	0.490663	0.977226	0.709786
328	C	0.478798	0.953496	0.754957
329	H	0.436317	0.929125	0.759275
330	H	0.493897	0.983693	0.780967
331	H	0.496908	0.929125	0.759275
332	N	0.517325	0.030552	0.705968
333	C	0.530468	0.056837	0.99971
334	C	0.956328	0.478676	0.913782
335	C	0.978218	0.48962	0.959649
336	H	0.969972	0.515734	0.895966
337	H	0.913438	0.457231	0.913371
338	H	0.969969	0.455257	0.895966
339	H	0.075999	0.508216	0.759272
340	H	0.075999	0.568807	0.759272
341	N	0.974572	0.487798	0.705968
342	C	0.948287	0.474655	0.99971
