data_C171H108N36O9_2018-02-15_10:42:26
#******************************************
#
# CIF file created by Zeo++
# Zeo++ is an open source package to
# analyze microporous materials
#
#*******************************************

_cell_length_a		29.3282   
_cell_length_b		29.3283   
_cell_length_c		29.858   
_cell_angle_alpha		90   
_cell_angle_beta		90   
_cell_angle_gamma		120   

_symmetry_space_group_name_H-M		'P1'
_symmetry_Int_Tables_number		1
_symmetry_cell_setting		Monoclinic

loop_
_symmetry_equiv_pos_as_xyz
'+x,+y,+z'

loop_
_atom_site_label
_atom_site_type_symbol
_atom_site_fract_x
_atom_site_fract_y
_atom_site_fract_z
1	C	0.027844	0.514523	0.296261
2	N	0.032419	0.516799	0.042051
3	C	0.027844	0.514523	0.629594
4	N	0.032419	0.516799	0.375384
5	C	0.027844	0.514523	0.962926
6	N	0.032419	0.516799	0.708716
7	C	0.058265	0.529728	0.002289
8	H	0.044894	0.523051	0.265252
9	C	0.058265	0.529728	0.335622
10	H	0.044894	0.523051	0.598584
11	C	0.058265	0.529728	0.668954
12	H	0.044894	0.523051	0.931919
13	C	0.364101	0.72344	0.002292
14	N	0.3896	0.695396	0.002282
15	C	0.364102	0.64185	0.002292
16	N	0.310558	0.616353	0.002282
17	C	0.28251	0.64185	0.002296
18	N	0.310558	0.695396	0.002282
19	C	0.392226	0.613727	0.002158
20	C	0.448072	0.640571	0.002095
21	C	0.475863	0.61294	0.001944
22	C	0.448515	0.557438	0.001703
23	C	0.393012	0.53009	0.001944
24	C	0.365381	0.557879	0.002095
25	C	0.392226	0.77969	0.002158
26	C	0.448071	0.808691	0.002095
27	C	0.475862	0.864111	0.001941
28	C	0.448516	0.892269	0.001696
29	C	0.393011	0.864111	0.001941
30	C	0.365382	0.808691	0.002095
31	C	0.226263	0.613727	0.002162
32	C	0.197261	0.640571	0.002098
33	C	0.141839	0.61294	0.001944
34	C	0.113683	0.557438	0.0017
35	C	0.14184	0.53009	0.001947
36	C	0.197259	0.557879	0.002098
37	H	0.516177	0.883702	0.002048
38	H	0.469449	0.789816	0.002235
39	H	0.372287	0.883702	0.002048
40	H	0.32513	0.789816	0.002235
41	H	0.216133	0.68082	0.002235
42	H	0.122249	0.633665	0.002048
43	H	0.216134	0.536504	0.002239
44	H	0.122248	0.489774	0.002051
45	H	0.325131	0.536504	0.002232
46	H	0.372287	0.489774	0.002051
47	H	0.516179	0.633665	0.002048
48	H	0.46945	0.68082	0.002232
49	C	0.643037	0.281312	0.999392
50	N	0.617542	0.309366	0.999469
51	C	0.643037	0.362913	0.999392
52	N	0.696585	0.388407	0.999469
53	C	0.724638	0.362913	0.999399
54	N	0.696586	0.309366	0.999469
55	C	0.614911	0.391037	0.000102
56	C	0.559071	0.364196	0.000651
57	C	0.531301	0.391805	0.002416
58	C	0.558662	0.447284	0.004323
59	C	0.614144	0.474647	0.002404
60	C	0.641753	0.446875	0.000655
61	C	0.614913	0.225064	0.000109
62	C	0.559071	0.196065	0.000665
63	C	0.531302	0.140685	0.00242
64	C	0.558664	0.112567	0.004323
65	C	0.614144	0.140685	0.00242
66	C	0.641752	0.196065	0.000658
67	C	0.780884	0.391036	0.000105
68	C	0.809884	0.364196	0.000655
69	C	0.865266	0.391805	0.002413
70	C	0.893385	0.447284	0.004315
71	C	0.865267	0.474647	0.002388
72	C	0.809885	0.446875	0.000658
73	H	0.490996	0.12112	0.003209
74	H	0.537688	0.214927	0.000109
75	H	0.634882	0.121121	0.003217
76	H	0.682	0.214927	0.000115
77	H	0.791022	0.32395	0.000105
78	H	0.884831	0.371066	0.00321
79	H	0.791023	0.468261	0.000125
80	H	0.884828	0.514948	0.003229
81	H	0.681998	0.468261	0.000112
82	H	0.634882	0.514952	0.003215
83	H	0.490998	0.371067	0.003212
84	H	0.53769	0.32395	0.000109
85	C	0.530966	0.474986	0.00664
86	N	0.518032	0.487923	0.300061
87	C	0.491437	0.514519	0.296264
88	C	0.476224	0.529728	0.002292
89	N	0.489143	0.516802	0.042055
90	C	0.515763	0.490183	0.046728
91	H	0.482913	0.523043	0.265255
92	O	0.523242	0.482699	0.091015
93	C	0.550007	0.455946	0.106081
94	H	0.549906	0.456052	0.142586
95	H	0.590857	0.476199	0.094878
96	H	0.529762	0.415098	0.094882
97	C	0.530965	0.05717	0.006639
98	N	0.51803	0.031299	0.300059
99	C	0.491437	0.978111	0.29626
100	C	0.476224	0.947684	0.002286
101	N	0.489145	0.973528	0.042051
102	C	0.515763	0.026767	0.046726
103	H	0.482913	0.961063	0.265251
104	O	0.523243	0.041726	0.091014
105	C	0.550002	0.095243	0.106083
106	H	0.549897	0.095034	0.142587
107	H	0.529753	0.115846	0.094883
108	H	0.590854	0.115845	0.094883
109	C	0.948781	0.474982	0.006635
110	N	0.974655	0.487927	0.300057
111	C	0.97918	0.490179	0.046724
112	O	0.964217	0.482695	0.09101
113	C	0.910698	0.45595	0.106074
114	H	0.910901	0.456056	0.142579
115	H	0.890088	0.415098	0.094876
116	H	0.890105	0.476206	0.094869
117	C	0.364101	0.72344	0.335626
118	N	0.3896	0.695396	0.335616
119	C	0.364102	0.64185	0.335626
120	N	0.310558	0.616353	0.335616
121	C	0.28251	0.64185	0.335629
122	N	0.310558	0.695396	0.335616
123	C	0.392226	0.613727	0.335492
124	C	0.448072	0.640571	0.335428
125	C	0.475863	0.61294	0.335277
126	C	0.448515	0.557438	0.335036
127	C	0.393012	0.53009	0.335277
128	C	0.365381	0.557879	0.335428
129	C	0.392226	0.77969	0.335492
130	C	0.448071	0.808691	0.335428
131	C	0.475862	0.864111	0.335277
132	C	0.448516	0.892269	0.33503
133	C	0.393011	0.864111	0.335277
134	C	0.365382	0.808691	0.335432
135	C	0.226263	0.613727	0.335495
136	C	0.197261	0.640571	0.335432
137	C	0.141839	0.61294	0.335277
138	C	0.113683	0.557438	0.335033
139	C	0.14184	0.53009	0.335281
140	C	0.197259	0.557879	0.335432
141	H	0.516177	0.883702	0.335381
142	H	0.469449	0.789816	0.335569
143	H	0.372287	0.883702	0.335381
144	H	0.32513	0.789816	0.335569
145	H	0.216133	0.68082	0.335569
146	H	0.122249	0.633665	0.335381
147	H	0.216134	0.536504	0.335572
148	H	0.122248	0.489774	0.335388
149	H	0.325131	0.536504	0.335569
150	H	0.372287	0.489774	0.335385
151	H	0.516179	0.633665	0.335381
152	H	0.46945	0.68082	0.335566
153	C	0.643037	0.281312	0.332726
154	N	0.617542	0.309366	0.332802
155	C	0.643037	0.362913	0.332728
156	N	0.696585	0.388407	0.332804
157	C	0.724638	0.362913	0.332732
158	N	0.696586	0.309366	0.332804
159	C	0.614911	0.391037	0.333438
160	C	0.559071	0.364196	0.333984
161	C	0.531301	0.391805	0.33575
162	C	0.558662	0.447284	0.337655
163	C	0.614144	0.474647	0.335736
164	C	0.641753	0.446875	0.333989
165	C	0.614913	0.225064	0.333441
166	C	0.559071	0.196065	0.333997
167	C	0.531302	0.140685	0.335753
168	C	0.558664	0.112567	0.337655
169	C	0.614144	0.140685	0.335753
170	C	0.641752	0.196065	0.333992
171	C	0.780884	0.391036	0.333438
172	C	0.809884	0.364196	0.333988
173	C	0.865266	0.391805	0.335746
174	C	0.893385	0.447284	0.337649
175	C	0.865267	0.474647	0.33572
176	C	0.809885	0.446875	0.333992
177	H	0.490996	0.12112	0.336543
178	H	0.537688	0.214927	0.333442
179	H	0.634882	0.121121	0.33655
180	H	0.682	0.214927	0.33345
181	H	0.791022	0.32395	0.333439
182	H	0.884831	0.371066	0.336543
183	H	0.791023	0.468261	0.33346
184	H	0.884828	0.514948	0.336564
185	H	0.681998	0.468261	0.333446
186	H	0.634882	0.514952	0.336547
187	H	0.490998	0.371067	0.336543
188	H	0.53769	0.32395	0.333442
189	C	0.530966	0.474986	0.339973
190	N	0.518032	0.487923	0.633392
191	C	0.491437	0.514519	0.629598
192	C	0.476224	0.529728	0.335626
193	N	0.489143	0.516802	0.375387
194	C	0.515763	0.490183	0.38006
195	H	0.482913	0.523043	0.598588
196	O	0.523242	0.482699	0.424349
197	C	0.550007	0.455946	0.439414
198	H	0.549906	0.456052	0.47592
199	H	0.590857	0.476199	0.428211
200	H	0.529762	0.415098	0.428214
201	C	0.530965	0.05717	0.339973
202	N	0.51803	0.031299	0.633392
203	C	0.491437	0.978111	0.629594
204	C	0.476224	0.947684	0.335619
205	N	0.489145	0.973528	0.375384
206	C	0.515763	0.026767	0.38006
207	H	0.482913	0.961063	0.598584
208	O	0.523243	0.041726	0.424346
209	C	0.550002	0.095243	0.439414
210	H	0.549897	0.095034	0.47592
211	H	0.529753	0.115846	0.428214
212	H	0.590854	0.115845	0.428214
213	C	0.948781	0.474982	0.339966
214	N	0.974655	0.487927	0.633389
215	C	0.97918	0.490179	0.380056
216	O	0.964217	0.482695	0.424343
217	C	0.910698	0.45595	0.439407
218	H	0.910901	0.456056	0.475913
219	H	0.890088	0.415098	0.428207
220	H	0.890105	0.476206	0.428201
221	C	0.364101	0.72344	0.668961
222	N	0.3896	0.695396	0.668947
223	C	0.364102	0.64185	0.668957
224	N	0.310558	0.616353	0.668951
225	C	0.28251	0.64185	0.668961
226	N	0.310558	0.695396	0.668951
227	C	0.392226	0.613727	0.668823
228	C	0.448072	0.640571	0.668763
229	C	0.475863	0.61294	0.668612
230	C	0.448515	0.557438	0.668371
231	C	0.393012	0.53009	0.668612
232	C	0.365381	0.557879	0.668763
233	C	0.392226	0.77969	0.668823
234	C	0.448071	0.808691	0.668763
235	C	0.475862	0.864111	0.668609
236	C	0.448516	0.892269	0.668361
237	C	0.393011	0.864111	0.668609
238	C	0.365382	0.808691	0.668763
239	C	0.226263	0.613727	0.668827
240	C	0.197261	0.640571	0.668766
241	C	0.141839	0.61294	0.668612
242	C	0.113683	0.557438	0.668368
243	C	0.14184	0.53009	0.668612
244	C	0.197259	0.557879	0.668766
245	H	0.516177	0.883702	0.668716
246	H	0.469449	0.789816	0.668904
247	H	0.372287	0.883702	0.668713
248	H	0.32513	0.789816	0.6689
249	H	0.216133	0.68082	0.668904
250	H	0.122249	0.633665	0.668716
251	H	0.216134	0.536504	0.668907
252	H	0.122248	0.489774	0.66872
253	H	0.325131	0.536504	0.6689
254	H	0.372287	0.489774	0.668716
255	H	0.516179	0.633665	0.668716
256	H	0.46945	0.68082	0.6689
257	C	0.643037	0.281312	0.66606
258	N	0.617542	0.309366	0.666134
259	C	0.643037	0.362913	0.66606
260	N	0.696585	0.388407	0.666137
261	C	0.724638	0.362913	0.666064
262	N	0.696586	0.309366	0.666137
263	C	0.614911	0.391037	0.66677
264	C	0.559071	0.364196	0.667316
265	C	0.531301	0.391805	0.669081
266	C	0.558662	0.447284	0.67099
267	C	0.614144	0.474647	0.669068
268	C	0.641753	0.446875	0.667323
269	C	0.614913	0.225064	0.666774
270	C	0.559071	0.196065	0.66733
271	C	0.531302	0.140685	0.669085
272	C	0.558664	0.112567	0.670987
273	C	0.614144	0.140685	0.669085
274	C	0.641752	0.196065	0.667326
275	C	0.780884	0.391036	0.66677
276	C	0.809884	0.364196	0.66732
277	C	0.865266	0.391805	0.669078
278	C	0.893385	0.447284	0.67098
279	C	0.865267	0.474647	0.669055
280	C	0.809885	0.446875	0.667323
281	H	0.490996	0.12112	0.669875
282	H	0.537688	0.214927	0.666774
283	H	0.634882	0.121121	0.669882
284	H	0.682	0.214927	0.666784
285	H	0.791022	0.32395	0.66677
286	H	0.884831	0.371066	0.669875
287	H	0.791023	0.468261	0.666794
288	H	0.884828	0.514948	0.669895
289	H	0.681998	0.468261	0.66678
290	H	0.634882	0.514952	0.669882
291	H	0.490998	0.371067	0.669878
292	H	0.53769	0.32395	0.666774
293	C	0.530966	0.474986	0.673305
294	N	0.518032	0.487923	0.966727
295	C	0.491437	0.514519	0.962929
296	C	0.476224	0.529728	0.668957
297	N	0.489143	0.516802	0.708719
298	C	0.515763	0.490183	0.713394
299	H	0.482913	0.523043	0.931919
300	O	0.523242	0.482699	0.757681
301	C	0.550007	0.455946	0.772745
302	H	0.549906	0.456052	0.809252
303	H	0.590857	0.476199	0.761542
304	H	0.529762	0.415098	0.761549
305	C	0.530965	0.05717	0.673305
306	N	0.51803	0.031299	0.966724
307	C	0.491437	0.978111	0.962926
308	C	0.476224	0.947684	0.668954
309	N	0.489145	0.973528	0.708716
310	C	0.515763	0.026767	0.713391
311	H	0.482913	0.961063	0.931916
312	O	0.523243	0.041726	0.757681
313	C	0.550002	0.095243	0.772749
314	H	0.549897	0.095034	0.809252
315	H	0.529753	0.115846	0.761549
316	H	0.590854	0.115845	0.761549
317	C	0.948781	0.474982	0.673301
318	N	0.974655	0.487927	0.966724
319	C	0.97918	0.490179	0.713391
320	O	0.964217	0.482695	0.757677
321	C	0.910698	0.45595	0.772739
322	H	0.910901	0.456056	0.809245
323	H	0.890088	0.415098	0.761542
324	H	0.890105	0.476206	0.761536
