data_C288H144N72_2018-02-15_10:40:18
#******************************************
#
# CIF file created by Zeo++
# Zeo++ is an open source package to
# analyze microporous materials
#
#*******************************************

_cell_length_a		29.214   
_cell_length_b		29.214   
_cell_length_c		29.5028   
_cell_angle_alpha		90   
_cell_angle_beta		90   
_cell_angle_gamma		120   

_symmetry_space_group_name_H-M		'P1'
_symmetry_Int_Tables_number		1
_symmetry_cell_setting		Monoclinic

loop_
_symmetry_equiv_pos_as_xyz
'+x,+y,+z'

loop_
_atom_site_label
_atom_site_type_symbol
_atom_site_fract_x
_atom_site_fract_y
_atom_site_fract_z
1	C	0.123215	0.313719	0.008468
2	C	0.151496	0.36959	0.00847
3	C	0.151476	0.286108	0.00847
4	H	0.13121	0.245588	0.008478
5	H	0.131243	0.389857	0.008478
6	C	0.038394	0.271306	0.049274
7	C	0.038351	0.271285	0.301064
8	C	0.067579	0.285907	0.341822
9	H	0.057105	0.280663	0.079988
10	H	0.057028	0.280625	0.270335
11	C	0.123215	0.313719	0.341802
12	C	0.151496	0.36959	0.341802
13	C	0.151476	0.286108	0.341802
14	H	0.13121	0.245588	0.341812
15	H	0.131243	0.389857	0.341812
16	C	0.038394	0.271306	0.382608
17	C	0.038351	0.271285	0.634395
18	C	0.067579	0.285907	0.675157
19	H	0.057105	0.280663	0.413321
20	H	0.057028	0.280625	0.603669
21	C	0.123215	0.313719	0.675134
22	C	0.151496	0.36959	0.675137
23	C	0.151476	0.286108	0.675137
24	H	0.13121	0.245588	0.675144
25	H	0.131243	0.389857	0.675144
26	C	0.038394	0.271306	0.71594
27	C	0.038351	0.271285	0.96773
28	C	0.067579	0.285907	0.008491
29	H	0.057105	0.280663	0.746652
30	H	0.057028	0.280625	0.937001
31	C	0.123215	0.813717	0.008468
32	C	0.151496	0.86959	0.00847
33	C	0.151476	0.786108	0.00847
34	H	0.131209	0.745587	0.008478
35	H	0.131242	0.889855	0.008478
36	C	0.038395	0.771306	0.049274
37	C	0.038349	0.771282	0.301064
38	C	0.06758	0.785907	0.341822
39	H	0.057104	0.780662	0.079988
40	H	0.057027	0.780622	0.270335
41	C	0.123215	0.813717	0.341802
42	C	0.151496	0.86959	0.341802
43	C	0.151476	0.786108	0.341802
44	H	0.131209	0.745587	0.341809
45	H	0.131242	0.889855	0.341812
46	C	0.038395	0.771306	0.382608
47	C	0.038349	0.771282	0.634395
48	C	0.06758	0.785907	0.675157
49	H	0.057104	0.780662	0.413321
50	H	0.057027	0.780622	0.603669
51	C	0.123215	0.813717	0.675134
52	C	0.151496	0.86959	0.675137
53	C	0.151476	0.786108	0.675137
54	H	0.131209	0.745587	0.675144
55	H	0.131242	0.889855	0.675144
56	C	0.038395	0.771306	0.71594
57	C	0.038349	0.771282	0.96773
58	C	0.06758	0.785907	0.008491
59	H	0.057104	0.780662	0.746652
60	H	0.057027	0.780622	0.937001
61	C	0.207368	0.397853	0.008468
62	C	0.207346	0.313701	0.008468
63	C	0.207368	0.397853	0.341802
64	C	0.207346	0.313701	0.341802
65	C	0.207368	0.397853	0.675134
66	C	0.207346	0.313701	0.675134
67	C	0.207368	0.897851	0.008468
68	C	0.207346	0.813701	0.008468
69	C	0.207368	0.897851	0.341802
70	C	0.207346	0.813701	0.341802
71	C	0.207368	0.897851	0.675134
72	C	0.207346	0.813701	0.675134
73	C	0.234959	0.369573	0.00847
74	H	0.249782	0.127025	0.008543
75	C	0.249759	0.271298	0.049275
76	C	0.249781	0.271276	0.301063
77	C	0.235155	0.285877	0.341822
78	H	0.240399	0.28065	0.079989
79	H	0.240438	0.280611	0.270334
80	C	0.249773	0.482674	0.049274
81	C	0.249795	0.482718	0.301064
82	C	0.235195	0.453489	0.341822
83	H	0.240422	0.463963	0.079988
84	H	0.240462	0.464042	0.270335
85	C	0.234959	0.369573	0.341802
86	H	0.249782	0.127025	0.341877
87	C	0.249759	0.271298	0.382608
88	C	0.249781	0.271276	0.634395
89	C	0.235155	0.285877	0.675157
90	H	0.240399	0.28065	0.413321
91	H	0.240438	0.280611	0.603666
92	C	0.249773	0.482674	0.382608
93	C	0.249795	0.482718	0.634398
94	C	0.235195	0.453489	0.675157
95	H	0.240422	0.463963	0.413321
96	H	0.240462	0.464042	0.603669
97	C	0.234959	0.369573	0.675137
98	H	0.249782	0.127025	0.675208
99	C	0.249759	0.271298	0.71594
100	C	0.249781	0.271276	0.96773
101	C	0.235155	0.285877	0.008491
102	H	0.240399	0.28065	0.746656
103	H	0.240438	0.280611	0.937001
104	C	0.249773	0.482674	0.71594
105	C	0.249795	0.482718	0.96773
106	C	0.235195	0.453489	0.008491
107	H	0.240422	0.463963	0.746652
108	H	0.240462	0.464042	0.937001
109	C	0.234958	0.869571	0.00847
110	H	0.249782	0.627026	0.008543
111	C	0.249759	0.771298	0.049275
112	C	0.24978	0.771274	0.301063
113	C	0.235155	0.785875	0.341822
114	H	0.2404	0.78065	0.079989
115	H	0.240438	0.78061	0.270334
116	C	0.249772	0.982673	0.049274
117	C	0.249794	0.982716	0.301064
118	C	0.235194	0.953487	0.341822
119	H	0.240424	0.963965	0.079988
120	H	0.240462	0.964041	0.270335
121	C	0.234958	0.869571	0.341802
122	H	0.249782	0.627026	0.341877
123	C	0.249759	0.771298	0.382608
124	C	0.24978	0.771274	0.634395
125	C	0.235155	0.785875	0.675157
126	H	0.2404	0.78065	0.413321
127	H	0.240438	0.78061	0.603666
128	C	0.249772	0.982673	0.382608
129	C	0.249794	0.982716	0.634398
130	C	0.235194	0.953487	0.675157
131	H	0.240424	0.963965	0.413321
132	H	0.240462	0.964041	0.603669
133	C	0.234958	0.869571	0.675137
134	H	0.249782	0.627026	0.675208
135	C	0.249759	0.771298	0.71594
136	C	0.24978	0.771274	0.96773
137	C	0.235155	0.785875	0.008491
138	H	0.2404	0.78065	0.746656
139	H	0.240438	0.78061	0.937001
140	C	0.249772	0.982673	0.71594
141	C	0.249794	0.982716	0.96773
142	C	0.235194	0.953487	0.008491
143	H	0.240424	0.963965	0.746652
144	H	0.240462	0.964041	0.937001
145	H	0.275479	0.389825	0.008478
146	C	0.402022	0.203113	0.008553
147	C	0.373792	0.147255	0.00855
148	C	0.317934	0.119048	0.008553
149	C	0.290306	0.147278	0.00855
150	C	0.317961	0.203135	0.008553
151	C	0.373817	0.230765	0.00855
152	H	0.394087	0.27129	0.008543
153	H	0.394046	0.126985	0.008543
154	N	0.276621	0.244469	0.048229
155	C	0.290258	0.230857	0.008534
156	N	0.276642	0.244448	0.302151
157	N	0.276598	0.036367	0.048228
158	C	0.290209	0.063621	0.008534
159	N	0.276619	0.036409	0.302152
160	N	0.484703	0.244453	0.048228
161	C	0.457449	0.230819	0.008534
162	N	0.484662	0.244432	0.302152
163	H	0.275479	0.389825	0.341809
164	C	0.402022	0.203113	0.341887
165	C	0.373792	0.147255	0.341883
166	C	0.317934	0.119048	0.341887
167	C	0.290306	0.147278	0.341883
168	C	0.317961	0.203135	0.341887
169	C	0.373817	0.230765	0.341883
170	H	0.394087	0.27129	0.341877
171	H	0.394046	0.126985	0.341877
172	N	0.276621	0.244469	0.381561
173	C	0.290258	0.230857	0.341866
174	N	0.276642	0.244448	0.635483
175	N	0.276598	0.036367	0.381561
176	C	0.290209	0.063621	0.341866
177	N	0.276619	0.036409	0.635486
178	N	0.484703	0.244453	0.381561
179	C	0.457449	0.230819	0.341866
180	N	0.484662	0.244432	0.635486
181	H	0.275479	0.389825	0.675144
182	C	0.402022	0.203113	0.675218
183	C	0.373792	0.147255	0.675215
184	C	0.317934	0.119048	0.675218
185	C	0.290306	0.147278	0.675215
186	C	0.317961	0.203135	0.675218
187	C	0.373817	0.230765	0.675215
188	H	0.394087	0.27129	0.675208
189	H	0.394046	0.126985	0.675208
190	N	0.276621	0.244469	0.714896
191	C	0.290258	0.230857	0.675201
192	N	0.276642	0.244448	0.968818
193	N	0.276598	0.036367	0.714893
194	C	0.290209	0.063621	0.675201
195	N	0.276619	0.036409	0.968818
196	N	0.484703	0.244453	0.714893
197	C	0.457449	0.230819	0.675201
198	N	0.484662	0.244432	0.968818
199	H	0.275478	0.889823	0.008478
200	C	0.402022	0.703113	0.008553
201	C	0.373792	0.647255	0.00855
202	C	0.317935	0.61905	0.008553
203	C	0.290307	0.647279	0.00855
204	C	0.317961	0.703136	0.008553
205	C	0.373817	0.730765	0.00855
206	H	0.394088	0.77129	0.008543
207	H	0.394047	0.626986	0.008543
208	N	0.27662	0.744468	0.048229
209	C	0.290258	0.730856	0.008534
210	N	0.276642	0.744448	0.302151
211	N	0.276598	0.536366	0.048228
212	C	0.290208	0.563619	0.008534
213	N	0.27662	0.536409	0.302152
214	N	0.484702	0.744452	0.048228
215	C	0.45745	0.73082	0.008534
216	N	0.484661	0.744433	0.302152
217	H	0.275478	0.889823	0.341812
218	C	0.402022	0.703113	0.341887
219	C	0.373792	0.647255	0.341883
220	C	0.317935	0.61905	0.341887
221	C	0.290307	0.647279	0.341883
222	C	0.317961	0.703136	0.341887
223	C	0.373817	0.730765	0.341883
224	H	0.394088	0.77129	0.341877
225	H	0.394047	0.626986	0.341877
226	N	0.27662	0.744468	0.381561
227	C	0.290258	0.730856	0.341866
228	N	0.276642	0.744448	0.635483
229	N	0.276598	0.536366	0.381561
230	C	0.290208	0.563619	0.341866
231	N	0.27662	0.536409	0.635486
232	N	0.484702	0.744452	0.381561
233	C	0.45745	0.73082	0.341866
234	N	0.484661	0.744433	0.635486
235	H	0.275478	0.889823	0.675144
236	C	0.402022	0.703113	0.675218
237	C	0.373792	0.647255	0.675215
238	C	0.317935	0.61905	0.675218
239	C	0.290307	0.647279	0.675215
240	C	0.317961	0.703136	0.675218
241	C	0.373817	0.730765	0.675215
242	H	0.394088	0.77129	0.675208
243	H	0.394047	0.626986	0.675208
244	N	0.27662	0.744468	0.714896
245	C	0.290258	0.730856	0.675201
246	N	0.276642	0.744448	0.968818
247	N	0.276598	0.536366	0.714893
248	C	0.290208	0.563619	0.675201
249	N	0.27662	0.536409	0.968818
250	N	0.484702	0.744452	0.714893
251	C	0.45745	0.73082	0.675201
252	N	0.484661	0.744433	0.968818
253	C	0.623215	0.313719	0.008468
254	C	0.651496	0.36959	0.00847
255	C	0.707367	0.397853	0.008468
256	C	0.734958	0.369573	0.00847
257	C	0.707347	0.313701	0.008468
258	C	0.651475	0.286108	0.00847
259	H	0.77548	0.389825	0.008478
260	H	0.631208	0.245588	0.008478
261	H	0.631243	0.389857	0.008478
262	C	0.902022	0.203113	0.008553
263	C	0.873792	0.147255	0.00855
264	C	0.817934	0.119048	0.008553
265	C	0.790306	0.147278	0.00855
266	C	0.81796	0.203135	0.008553
267	C	0.873817	0.230765	0.00855
268	H	0.749783	0.127025	0.008543
269	H	0.894086	0.27129	0.008543
270	H	0.894046	0.126985	0.008543
271	C	0.749759	0.271298	0.049275
272	N	0.776619	0.244469	0.048229
273	C	0.790259	0.230857	0.008534
274	N	0.77664	0.244448	0.302151
275	C	0.749782	0.271276	0.301063
276	C	0.735155	0.285877	0.341822
277	H	0.7404	0.28065	0.079989
278	H	0.740439	0.280611	0.270334
279	C	0.749772	0.482674	0.049274
280	N	0.776597	0.036367	0.048228
281	C	0.790207	0.063621	0.008534
282	N	0.776618	0.036409	0.302152
283	C	0.749793	0.482718	0.301064
284	C	0.735196	0.453489	0.341822
285	H	0.740423	0.463963	0.079988
286	H	0.740462	0.464042	0.270335
287	C	0.538395	0.271306	0.049274
288	N	0.984703	0.244453	0.048228
289	C	0.957447	0.230819	0.008534
290	N	0.984659	0.244432	0.302152
291	C	0.53835	0.271285	0.301064
292	C	0.567579	0.285907	0.341822
293	H	0.557104	0.280663	0.079988
294	H	0.557027	0.280625	0.270335
295	C	0.623215	0.313719	0.341802
296	C	0.651496	0.36959	0.341802
297	C	0.707367	0.397853	0.341802
298	C	0.734958	0.369573	0.341802
299	C	0.707347	0.313701	0.341802
300	C	0.651475	0.286108	0.341802
301	H	0.77548	0.389825	0.341809
302	H	0.631208	0.245588	0.341812
303	H	0.631243	0.389857	0.341812
304	C	0.902022	0.203113	0.341887
305	C	0.873792	0.147255	0.341883
306	C	0.817934	0.119048	0.341887
307	C	0.790306	0.147278	0.341883
308	C	0.81796	0.203135	0.341887
309	C	0.873817	0.230765	0.341883
310	H	0.749783	0.127025	0.341877
311	H	0.894086	0.27129	0.341877
312	H	0.894046	0.126985	0.341877
313	C	0.749759	0.271298	0.382608
314	N	0.776619	0.244469	0.381561
315	C	0.790259	0.230857	0.341866
316	N	0.77664	0.244448	0.635483
317	C	0.749782	0.271276	0.634395
318	C	0.735155	0.285877	0.675157
319	H	0.7404	0.28065	0.413321
320	H	0.740439	0.280611	0.603666
321	C	0.749772	0.482674	0.382608
322	N	0.776597	0.036367	0.381561
323	C	0.790207	0.063621	0.341866
324	N	0.776618	0.036409	0.635486
325	C	0.749793	0.482718	0.634398
326	C	0.735196	0.453489	0.675157
327	H	0.740423	0.463963	0.413321
328	H	0.740462	0.464042	0.603669
329	C	0.538395	0.271306	0.382608
330	N	0.984703	0.244453	0.381561
331	C	0.957447	0.230819	0.341866
332	N	0.984659	0.244432	0.635486
333	C	0.53835	0.271285	0.634395
334	C	0.567579	0.285907	0.675157
335	H	0.557104	0.280663	0.413321
336	H	0.557027	0.280625	0.603669
337	C	0.623215	0.313719	0.675134
338	C	0.651496	0.36959	0.675137
339	C	0.707367	0.397853	0.675134
340	C	0.734958	0.369573	0.675137
341	C	0.707347	0.313701	0.675134
342	C	0.651475	0.286108	0.675137
343	H	0.77548	0.389825	0.675144
344	H	0.631208	0.245588	0.675144
345	H	0.631243	0.389857	0.675144
346	C	0.902022	0.203113	0.675218
347	C	0.873792	0.147255	0.675215
348	C	0.817934	0.119048	0.675218
349	C	0.790306	0.147278	0.675215
350	C	0.81796	0.203135	0.675218
351	C	0.873817	0.230765	0.675215
352	H	0.749783	0.127025	0.675208
353	H	0.894086	0.27129	0.675208
354	H	0.894046	0.126985	0.675208
355	C	0.749759	0.271298	0.71594
356	N	0.776619	0.244469	0.714896
357	C	0.790259	0.230857	0.675201
358	N	0.77664	0.244448	0.968818
359	C	0.749782	0.271276	0.96773
360	C	0.735155	0.285877	0.008491
361	H	0.7404	0.28065	0.746656
362	H	0.740439	0.280611	0.937001
363	C	0.749772	0.482674	0.71594
364	N	0.776597	0.036367	0.714893
365	C	0.790207	0.063621	0.675201
366	N	0.776618	0.036409	0.968818
367	C	0.749793	0.482718	0.96773
368	C	0.735196	0.453489	0.008491
369	H	0.740423	0.463963	0.746652
370	H	0.740462	0.464042	0.937001
371	C	0.538395	0.271306	0.71594
372	N	0.984703	0.244453	0.714893
373	C	0.957447	0.230819	0.675201
374	N	0.984659	0.244432	0.968818
375	C	0.53835	0.271285	0.96773
376	C	0.567579	0.285907	0.008491
377	H	0.557104	0.280663	0.746652
378	H	0.557027	0.280625	0.937001
379	C	0.623214	0.813717	0.008468
380	C	0.651496	0.86959	0.00847
381	C	0.707367	0.897851	0.008468
382	C	0.734958	0.869571	0.00847
383	C	0.707346	0.813701	0.008468
384	C	0.651475	0.786108	0.00847
385	H	0.775478	0.889823	0.008478
386	H	0.631209	0.745587	0.008478
387	H	0.631242	0.889855	0.008478
388	C	0.902022	0.703113	0.008553
389	C	0.873792	0.647255	0.00855
390	C	0.817935	0.61905	0.008553
391	C	0.790306	0.647279	0.00855
392	C	0.817961	0.703136	0.008553
393	C	0.873817	0.730765	0.00855
394	H	0.749783	0.627026	0.008543
395	H	0.894086	0.77129	0.008543
396	H	0.894047	0.626986	0.008543
397	C	0.749759	0.771298	0.049275
398	N	0.776619	0.744468	0.048229
399	C	0.790258	0.730856	0.008534
400	N	0.77664	0.744448	0.302151
401	C	0.749781	0.771274	0.301063
402	C	0.735154	0.785875	0.341822
403	H	0.7404	0.78065	0.079989
404	H	0.740439	0.78061	0.270334
405	C	0.749771	0.982673	0.049274
406	N	0.776597	0.536366	0.048228
407	C	0.790206	0.563619	0.008534
408	N	0.776619	0.536409	0.302152
409	C	0.749794	0.982716	0.301064
410	C	0.735194	0.953487	0.341822
411	H	0.740424	0.963965	0.079988
412	H	0.740461	0.964041	0.270335
413	C	0.538393	0.771306	0.049274
414	N	0.984703	0.744452	0.048228
415	C	0.957448	0.73082	0.008534
416	N	0.984659	0.744433	0.302152
417	C	0.538349	0.771282	0.301064
418	C	0.567579	0.785907	0.341822
419	H	0.557104	0.780662	0.079988
420	H	0.557026	0.780622	0.270335
421	C	0.623214	0.813717	0.341802
422	C	0.651496	0.86959	0.341802
423	C	0.707367	0.897851	0.341802
424	C	0.734958	0.869571	0.341802
425	C	0.707346	0.813701	0.341802
426	C	0.651475	0.786108	0.341802
427	H	0.775478	0.889823	0.341812
428	H	0.631209	0.745587	0.341809
429	H	0.631242	0.889855	0.341812
430	C	0.902022	0.703113	0.341887
431	C	0.873792	0.647255	0.341883
432	C	0.817935	0.61905	0.341887
433	C	0.790306	0.647279	0.341883
434	C	0.817961	0.703136	0.341887
435	C	0.873817	0.730765	0.341883
436	H	0.749783	0.627026	0.341877
437	H	0.894086	0.77129	0.341877
438	H	0.894047	0.626986	0.341877
439	C	0.749759	0.771298	0.382608
440	N	0.776619	0.744468	0.381561
441	C	0.790258	0.730856	0.341866
442	N	0.77664	0.744448	0.635483
443	C	0.749781	0.771274	0.634395
444	C	0.735154	0.785875	0.675157
445	H	0.7404	0.78065	0.413321
446	H	0.740439	0.78061	0.603666
447	C	0.749771	0.982673	0.382608
448	N	0.776597	0.536366	0.381561
449	C	0.790206	0.563619	0.341866
450	N	0.776619	0.536409	0.635486
451	C	0.749794	0.982716	0.634398
452	C	0.735194	0.953487	0.675157
453	H	0.740424	0.963965	0.413321
454	H	0.740461	0.964041	0.603669
455	C	0.538393	0.771306	0.382608
456	N	0.984703	0.744452	0.381561
457	C	0.957448	0.73082	0.341866
458	N	0.984659	0.744433	0.635486
459	C	0.538349	0.771282	0.634395
460	C	0.567579	0.785907	0.675157
461	H	0.557104	0.780662	0.413321
462	H	0.557026	0.780622	0.603669
463	C	0.623214	0.813717	0.675134
464	C	0.651496	0.86959	0.675137
465	C	0.707367	0.897851	0.675134
466	C	0.734958	0.869571	0.675137
467	C	0.707346	0.813701	0.675134
468	C	0.651475	0.786108	0.675137
469	H	0.775478	0.889823	0.675144
470	H	0.631209	0.745587	0.675144
471	H	0.631242	0.889855	0.675144
472	C	0.902022	0.703113	0.675218
473	C	0.873792	0.647255	0.675215
474	C	0.817935	0.61905	0.675218
475	C	0.790306	0.647279	0.675215
476	C	0.817961	0.703136	0.675218
477	C	0.873817	0.730765	0.675215
478	H	0.749783	0.627026	0.675208
479	H	0.894086	0.77129	0.675208
480	H	0.894047	0.626986	0.675208
481	C	0.749759	0.771298	0.71594
482	N	0.776619	0.744468	0.714896
483	C	0.790258	0.730856	0.675201
484	N	0.77664	0.744448	0.968818
485	C	0.749781	0.771274	0.96773
486	C	0.735154	0.785875	0.008491
487	H	0.7404	0.78065	0.746656
488	H	0.740439	0.78061	0.937001
489	C	0.749771	0.982673	0.71594
490	N	0.776597	0.536366	0.714893
491	C	0.790206	0.563619	0.675201
492	N	0.776619	0.536409	0.968818
493	C	0.749794	0.982716	0.96773
494	C	0.735194	0.953487	0.008491
495	H	0.740424	0.963965	0.746652
496	H	0.740461	0.964041	0.937001
497	C	0.538393	0.771306	0.71594
498	N	0.984703	0.744452	0.714893
499	C	0.957448	0.73082	0.675201
500	N	0.984659	0.744433	0.968818
501	C	0.538349	0.771282	0.96773
502	C	0.567579	0.785907	0.008491
503	H	0.557104	0.780662	0.746652
504	H	0.557026	0.780622	0.937001
