data_C162H99N45_2018-02-15_10:42:24
#******************************************
#
# CIF file created by Zeo++
# Zeo++ is an open source package to
# analyze microporous materials
#
#*******************************************

_cell_length_a		29.3358   
_cell_length_b		29.3358   
_cell_length_c		29.8762   
_cell_angle_alpha		90   
_cell_angle_beta		90   
_cell_angle_gamma		120   

_symmetry_space_group_name_H-M		'P1'
_symmetry_Int_Tables_number		1
_symmetry_cell_setting		Monoclinic

loop_
_symmetry_equiv_pos_as_xyz
'+x,+y,+z'

loop_
_atom_site_label
_atom_site_type_symbol
_atom_site_fract_x
_atom_site_fract_y
_atom_site_fract_z
1	C	0.028266	0.514651	0.295397
2	N	0.031332	0.516183	0.041394
3	C	0.028266	0.514651	0.628732
4	N	0.031332	0.516183	0.374727
5	C	0.028266	0.514651	0.962064
6	N	0.031332	0.516183	0.708059
7	H	0.046038	0.523539	0.264704
8	H	0.046038	0.523539	0.598038
9	H	0.046038	0.523539	0.931371
10	C	0.057856	0.529447	0.001925
11	C	0.057856	0.529447	0.33526
12	C	0.057856	0.529447	0.668593
13	C	0.363631	0.723118	0.002432
14	N	0.389126	0.69508	0.002424
15	C	0.363632	0.641549	0.002432
16	N	0.310099	0.616054	0.002424
17	C	0.282062	0.641549	0.002432
18	N	0.3101	0.69508	0.002424
19	C	0.391749	0.613429	0.002344
20	C	0.447585	0.64027	0.002287
21	C	0.475372	0.612646	0.002127
22	C	0.448028	0.557154	0.001935
23	C	0.392535	0.529809	0.002127
24	C	0.364911	0.557595	0.002288
25	C	0.391751	0.779357	0.002344
26	C	0.447585	0.808351	0.002288
27	C	0.475374	0.863764	0.002128
28	C	0.448028	0.891911	0.001935
29	C	0.392535	0.863764	0.002127
30	C	0.364911	0.808351	0.002287
31	C	0.225824	0.613429	0.002343
32	C	0.196829	0.64027	0.002287
33	C	0.141418	0.612646	0.002127
34	C	0.113271	0.557154	0.001932
35	C	0.141419	0.529809	0.002127
36	C	0.196829	0.557595	0.002287
37	H	0.515676	0.88335	0.002103
38	H	0.468956	0.789481	0.002362
39	H	0.37182	0.88335	0.002102
40	H	0.32467	0.789481	0.002362
41	H	0.215698	0.680509	0.002362
42	H	0.121832	0.633362	0.002102
43	H	0.215699	0.536225	0.002362
44	H	0.121832	0.489507	0.002102
45	H	0.324671	0.536225	0.002362
46	H	0.371819	0.489507	0.002103
47	H	0.515674	0.633362	0.002103
48	H	0.468956	0.680509	0.002362
49	C	0.642583	0.281022	0.001185
50	N	0.617093	0.309064	0.001212
51	C	0.642582	0.362598	0.001189
52	N	0.696118	0.38809	0.001212
53	C	0.724161	0.362598	0.001189
54	N	0.696116	0.309064	0.001212
55	C	0.614462	0.390719	0.001457
56	C	0.558627	0.363881	0.001718
57	C	0.530842	0.3915	0.002392
58	C	0.558188	0.446993	0.002811
59	C	0.613683	0.474341	0.002387
60	C	0.641301	0.446552	0.001718
61	C	0.614463	0.22478	0.001457
62	C	0.558629	0.195783	0.001721
63	C	0.530841	0.140378	0.002392
64	C	0.558188	0.112231	0.002812
65	C	0.613682	0.140378	0.002393
66	C	0.641299	0.195783	0.001718
67	C	0.780402	0.390719	0.001457
68	C	0.809399	0.363881	0.001721
69	C	0.864803	0.3915	0.002393
70	C	0.892948	0.446993	0.002816
71	C	0.864803	0.474341	0.002383
72	C	0.809396	0.446552	0.001718
73	H	0.490546	0.120792	0.002836
74	H	0.537258	0.214652	0.001614
75	H	0.634391	0.120792	0.002839
76	H	0.681539	0.214652	0.001617
77	H	0.79053	0.323642	0.001614
78	H	0.884391	0.37079	0.002841
79	H	0.790528	0.467925	0.001614
80	H	0.884388	0.514636	0.002842
81	H	0.681542	0.467925	0.001617
82	H	0.634393	0.514636	0.002837
83	H	0.490546	0.37079	0.002839
84	H	0.537256	0.323641	0.001617
85	C	0.530449	0.474735	0.004374
86	N	0.517179	0.488008	0.298178
87	C	0.490531	0.514655	0.295396
88	C	0.475735	0.529447	0.001925
89	N	0.488997	0.516183	0.041393
90	C	0.515733	0.489448	0.044776
91	H	0.481643	0.523539	0.264703
92	N	0.526535	0.478643	0.086219
93	H	0.54548	0.459699	0.090656
94	H	0.515398	0.489779	0.112711
95	C	0.530448	0.056751	0.004374
96	N	0.517177	0.030209	0.298178
97	C	0.490528	0.976913	0.295396
98	C	0.475735	0.947325	0.001925
99	N	0.488998	0.97385	0.041392
100	C	0.515733	0.027321	0.044776
101	H	0.481642	0.959141	0.264703
102	N	0.526536	0.048926	0.086219
103	H	0.545481	0.086816	0.090656
104	H	0.515399	0.026653	0.112711
105	C	0.94843	0.474735	0.004377
106	N	0.974972	0.488004	0.298181
107	C	0.977862	0.489448	0.044778
108	N	0.956257	0.478647	0.086222
109	H	0.918368	0.459703	0.09066
110	H	0.978531	0.489783	0.112714
111	C	0.363631	0.723118	0.335766
112	N	0.389126	0.69508	0.335756
113	C	0.363632	0.641549	0.335766
114	N	0.310099	0.616054	0.335756
115	C	0.282062	0.641549	0.335766
116	N	0.3101	0.69508	0.335756
117	C	0.391749	0.613429	0.335675
118	C	0.447585	0.64027	0.335622
119	C	0.475372	0.612646	0.335461
120	C	0.448028	0.557154	0.335267
121	C	0.392535	0.529809	0.335461
122	C	0.364911	0.557595	0.335622
123	C	0.391751	0.779357	0.335675
124	C	0.447585	0.808351	0.335622
125	C	0.475374	0.863764	0.335461
126	C	0.448028	0.891911	0.335267
127	C	0.392535	0.863764	0.335461
128	C	0.364911	0.808351	0.335622
129	C	0.225824	0.613429	0.335675
130	C	0.196829	0.64027	0.335622
131	C	0.141418	0.612646	0.335461
132	C	0.113271	0.557154	0.335267
133	C	0.141419	0.529809	0.335461
134	C	0.196829	0.557595	0.335622
135	H	0.515676	0.88335	0.335434
136	H	0.468956	0.789481	0.335695
137	H	0.37182	0.88335	0.335434
138	H	0.32467	0.789481	0.335695
139	H	0.215698	0.680509	0.335695
140	H	0.121832	0.633362	0.335434
141	H	0.215699	0.536225	0.335695
142	H	0.121832	0.489507	0.335434
143	H	0.324671	0.536225	0.335695
144	H	0.371819	0.489507	0.335438
145	H	0.515674	0.633362	0.335438
146	H	0.468956	0.680509	0.335695
147	C	0.642583	0.281022	0.334521
148	N	0.617093	0.309064	0.334547
149	C	0.642582	0.362598	0.334522
150	N	0.696118	0.38809	0.334547
151	C	0.724161	0.362598	0.334521
152	N	0.696116	0.309064	0.334546
153	C	0.614462	0.390719	0.334792
154	C	0.558627	0.363881	0.335053
155	C	0.530842	0.3915	0.335726
156	C	0.558188	0.446993	0.336144
157	C	0.613683	0.474341	0.335719
158	C	0.641301	0.446552	0.335053
159	C	0.614463	0.22478	0.334792
160	C	0.558629	0.195783	0.335056
161	C	0.530841	0.140378	0.335726
162	C	0.558188	0.112231	0.336144
163	C	0.613682	0.140378	0.335726
164	C	0.641299	0.195783	0.335053
165	C	0.780402	0.390719	0.334788
166	C	0.809399	0.363881	0.335053
167	C	0.864803	0.3915	0.335726
168	C	0.892948	0.446993	0.336151
169	C	0.864803	0.474341	0.335716
170	C	0.809396	0.446552	0.335049
171	H	0.490546	0.120792	0.336171
172	H	0.537258	0.214652	0.334949
173	H	0.634391	0.120792	0.336174
174	H	0.681539	0.214652	0.334952
175	H	0.79053	0.323642	0.334949
176	H	0.884391	0.37079	0.336174
177	H	0.790528	0.467925	0.334949
178	H	0.884388	0.514636	0.336174
179	H	0.681542	0.467925	0.334949
180	H	0.634393	0.514636	0.336171
181	H	0.490546	0.37079	0.336174
182	H	0.537256	0.323641	0.334952
183	C	0.530449	0.474735	0.337707
184	N	0.517179	0.488008	0.63151
185	C	0.490531	0.514655	0.628728
186	C	0.475735	0.529447	0.33526
187	N	0.488997	0.516183	0.374727
188	C	0.515733	0.489448	0.378107
189	H	0.481643	0.523539	0.598035
190	N	0.526535	0.478643	0.419552
191	H	0.54548	0.459699	0.42399
192	H	0.515398	0.489779	0.446044
193	C	0.530448	0.056751	0.337707
194	N	0.517177	0.030209	0.631513
195	C	0.490528	0.976913	0.628728
196	C	0.475735	0.947325	0.33526
197	N	0.488998	0.97385	0.374727
198	C	0.515733	0.027321	0.378111
199	H	0.481642	0.959141	0.598035
200	N	0.526536	0.048926	0.419552
201	H	0.545481	0.086816	0.42399
202	H	0.515399	0.026653	0.446044
203	C	0.94843	0.474735	0.33771
204	N	0.974972	0.488004	0.631513
205	C	0.977862	0.489448	0.378111
206	N	0.956257	0.478647	0.419555
207	H	0.918368	0.459703	0.423993
208	H	0.978531	0.489783	0.446048
209	C	0.363631	0.723118	0.669098
210	N	0.389126	0.69508	0.669091
211	C	0.363632	0.641549	0.669098
212	N	0.310099	0.616054	0.669091
213	C	0.282062	0.641549	0.669098
214	N	0.3101	0.69508	0.669091
215	C	0.391749	0.613429	0.669011
216	C	0.447585	0.64027	0.668954
217	C	0.475372	0.612646	0.668794
218	C	0.448028	0.557154	0.668603
219	C	0.392535	0.529809	0.668794
220	C	0.364911	0.557595	0.668954
221	C	0.391751	0.779357	0.669011
222	C	0.447585	0.808351	0.668954
223	C	0.475374	0.863764	0.668794
224	C	0.448028	0.891911	0.668599
225	C	0.392535	0.863764	0.668794
226	C	0.364911	0.808351	0.668954
227	C	0.225824	0.613429	0.669011
228	C	0.196829	0.64027	0.668954
229	C	0.141418	0.612646	0.668794
230	C	0.113271	0.557154	0.668599
231	C	0.141419	0.529809	0.668794
232	C	0.196829	0.557595	0.668954
233	H	0.515676	0.88335	0.66877
234	H	0.468956	0.789481	0.669028
235	H	0.37182	0.88335	0.66877
236	H	0.32467	0.789481	0.669028
237	H	0.215698	0.680509	0.669028
238	H	0.121832	0.633362	0.668767
239	H	0.215699	0.536225	0.669028
240	H	0.121832	0.489507	0.66877
241	H	0.324671	0.536225	0.669028
242	H	0.371819	0.489507	0.66877
243	H	0.515674	0.633362	0.66877
244	H	0.468956	0.680509	0.669028
245	C	0.642583	0.281022	0.667853
246	N	0.617093	0.309064	0.66788
247	C	0.642582	0.362598	0.667856
248	N	0.696118	0.38809	0.66788
249	C	0.724161	0.362598	0.667853
250	N	0.696116	0.309064	0.66788
251	C	0.614462	0.390719	0.668124
252	C	0.558627	0.363881	0.668385
253	C	0.530842	0.3915	0.669058
254	C	0.558188	0.446993	0.669476
255	C	0.613683	0.474341	0.669055
256	C	0.641301	0.446552	0.668385
257	C	0.614463	0.22478	0.668124
258	C	0.558629	0.195783	0.668389
259	C	0.530841	0.140378	0.669058
260	C	0.558188	0.112231	0.66948
261	C	0.613682	0.140378	0.669058
262	C	0.641299	0.195783	0.668385
263	C	0.780402	0.390719	0.668121
264	C	0.809399	0.363881	0.668385
265	C	0.864803	0.3915	0.669061
266	C	0.892948	0.446993	0.669483
267	C	0.864803	0.474341	0.669048
268	C	0.809396	0.446552	0.668382
269	H	0.490546	0.120792	0.669503
270	H	0.537258	0.214652	0.668281
271	H	0.634391	0.120792	0.669507
272	H	0.681539	0.214652	0.668285
273	H	0.79053	0.323642	0.668281
274	H	0.884391	0.37079	0.669507
275	H	0.790528	0.467925	0.668281
276	H	0.884388	0.514636	0.669507
277	H	0.681542	0.467925	0.668285
278	H	0.634393	0.514636	0.669503
279	H	0.490546	0.37079	0.669507
280	H	0.537256	0.323641	0.668285
281	C	0.530449	0.474735	0.67104
282	N	0.517179	0.488008	0.964845
283	C	0.490531	0.514655	0.962061
284	C	0.475735	0.529447	0.668593
285	N	0.488997	0.516183	0.708059
286	C	0.515733	0.489448	0.711443
287	H	0.481643	0.523539	0.931371
288	N	0.526535	0.478643	0.752884
289	H	0.54548	0.459699	0.757322
290	H	0.515398	0.489779	0.779377
291	C	0.530448	0.056751	0.67104
292	N	0.517177	0.030209	0.964845
293	C	0.490528	0.976913	0.962061
294	C	0.475735	0.947325	0.668593
295	N	0.488998	0.97385	0.708059
296	C	0.515733	0.027321	0.711443
297	H	0.481642	0.959141	0.931371
298	N	0.526536	0.048926	0.752884
299	H	0.545481	0.086816	0.757322
300	H	0.515399	0.026653	0.779377
301	C	0.94843	0.474735	0.671043
302	N	0.974972	0.488004	0.964845
303	C	0.977862	0.489448	0.711443
304	N	0.956257	0.478647	0.752887
305	H	0.918368	0.459703	0.757326
306	H	0.978531	0.489783	0.77938
