data_C198H108N36O9_2018-02-15_10:42:23
#******************************************
#
# CIF file created by Zeo++
# Zeo++ is an open source package to
# analyze microporous materials
#
#*******************************************

_cell_length_a		29.4983   
_cell_length_b		29.4982   
_cell_length_c		29.8902   
_cell_angle_alpha		90   
_cell_angle_beta		90   
_cell_angle_gamma		120   

_symmetry_space_group_name_H-M		'P1'
_symmetry_Int_Tables_number		1
_symmetry_cell_setting		Monoclinic

loop_
_symmetry_equiv_pos_as_xyz
'+x,+y,+z'

loop_
_atom_site_label
_atom_site_type_symbol
_atom_site_fract_x
_atom_site_fract_y
_atom_site_fract_z
1	N	0.025719	0.51332	0.127509
2	N	0.025719	0.51332	0.460841
3	N	0.025719	0.51332	0.794174
4	C	0.030372	0.515645	0.046927
5	C	0.030493	0.515708	0.298292
6	C	0.030372	0.515645	0.380259
7	C	0.030493	0.515708	0.631626
8	C	0.030372	0.515645	0.713593
9	C	0.030493	0.515708	0.964956
10	C	0.054752	0.527835	0.089692
11	H	0.049906	0.525416	0.268296
12	C	0.054752	0.527835	0.423026
13	H	0.049906	0.525416	0.601629
14	C	0.054752	0.527835	0.756359
15	H	0.049906	0.525416	0.934963
16	C	0.363144	0.722615	0.000256
17	N	0.388488	0.694705	0.000296
18	C	0.363144	0.641448	0.000259
19	N	0.309889	0.616106	0.000296
20	C	0.281977	0.641448	0.000256
21	N	0.309889	0.694705	0.000296
22	C	0.391132	0.613464	0.000624
23	C	0.446659	0.640121	0.001005
24	C	0.474297	0.612654	0.00207
25	C	0.447161	0.557436	0.002828
26	C	0.391942	0.530297	0.00207
27	C	0.364472	0.557933	0.001002
28	C	0.39113	0.778588	0.00062
29	C	0.446658	0.807457	0.000998
30	C	0.474296	0.862565	0.002058
31	C	0.44716	0.890648	0.002821
32	C	0.391941	0.862565	0.002065
33	C	0.364471	0.807457	0.001005
34	C	0.226005	0.613464	0.000624
35	C	0.197135	0.640121	0.001005
36	C	0.142029	0.612654	0.002056
37	C	0.113946	0.557432	0.002816
38	C	0.142028	0.530297	0.002059
39	C	0.197134	0.557933	0.000998
40	H	0.514354	0.882016	0.002883
41	H	0.467907	0.788695	0.000878
42	H	0.371337	0.88202	0.002876
43	H	0.32446	0.788695	0.000871
44	H	0.215896	0.680131	0.000871
45	H	0.122574	0.633255	0.002875
46	H	0.215897	0.536686	0.000878
47	H	0.122575	0.49024	0.002882
48	H	0.324462	0.536686	0.000875
49	H	0.371338	0.49024	0.00288
50	H	0.514356	0.633259	0.002876
51	H	0.467907	0.680131	0.000871
52	C	0.642367	0.281064	0.000199
53	N	0.617024	0.308972	0.000229
54	C	0.642369	0.362226	0.000199
55	N	0.69562	0.387571	0.000225
56	C	0.72353	0.362225	0.000199
57	N	0.695622	0.308972	0.000225
58	C	0.614383	0.390211	0.000466
59	C	0.558854	0.363551	0.000788
60	C	0.531219	0.391027	0.001647
61	C	0.55835	0.446242	0.002056
62	C	0.613565	0.473373	0.001637
63	C	0.641043	0.445741	0.000791
64	C	0.614382	0.225093	0.00047
65	C	0.558854	0.196224	0.000798
66	C	0.53122	0.141113	0.001647
67	C	0.55835	0.113029	0.002059
68	C	0.613567	0.141113	0.001647
69	C	0.641041	0.196224	0.000791
70	C	0.779501	0.390211	0.000466
71	C	0.80837	0.363551	0.000791
72	C	0.863479	0.391025	0.001647
73	C	0.891562	0.446242	0.002069
74	C	0.863483	0.473377	0.001634
75	C	0.808371	0.445741	0.000788
76	H	0.49116	0.121653	0.002396
77	H	0.537602	0.214986	0.000761
78	H	0.634168	0.121654	0.002402
79	H	0.681054	0.214986	0.000767
80	H	0.789608	0.323538	0.000757
81	H	0.88294	0.370424	0.002402
82	H	0.789607	0.466988	0.000764
83	H	0.882938	0.513434	0.002406
84	H	0.681055	0.466988	0.000764
85	H	0.634165	0.513434	0.002397
86	H	0.491158	0.370425	0.0024
87	H	0.537604	0.323538	0.000767
88	C	0.530613	0.47398	0.004882
89	C	0.517014	0.487582	0.046507
90	C	0.48895	0.515645	0.046929
91	C	0.474901	0.529694	0.005676
92	C	0.488885	0.515712	0.298295
93	C	0.516322	0.488275	0.29788
94	C	0.476763	0.527831	0.089697
95	N	0.491283	0.513312	0.127511
96	C	0.517671	0.486925	0.126362
97	H	0.52579	0.478806	0.267669
98	H	0.479177	0.52542	0.268301
99	O	0.450578	0.554015	0.096208
100	N	0.530271	0.47432	0.086464
101	H	0.527901	0.476692	0.155758
102	H	0.549309	0.455288	0.087435
103	C	0.530616	0.057554	0.004884
104	C	0.517014	0.03035	0.046507
105	C	0.48895	0.974225	0.046927
106	C	0.474901	0.946127	0.005672
107	C	0.488885	0.974096	0.298292
108	C	0.516324	0.028971	0.29788
109	C	0.47676	0.949846	0.089694
110	N	0.491279	0.978884	0.127509
111	C	0.517669	0.03166	0.126362
112	H	0.525794	0.04791	0.26767
113	H	0.479177	0.95468	0.268297
114	O	0.450578	0.897478	0.096202
115	N	0.530272	0.056867	0.086465
116	H	0.527899	0.052121	0.155759
117	H	0.549304	0.094938	0.087438
118	C	0.947037	0.47398	0.004888
119	C	0.974246	0.487582	0.04651
120	C	0.058466	0.529694	0.00567
121	C	0.975618	0.488271	0.297883
122	C	0.972941	0.486933	0.126365
123	H	0.956679	0.478802	0.267675
124	O	0.107124	0.554023	0.096198
125	N	0.947731	0.474324	0.08647
126	H	0.952482	0.4767	0.155763
127	H	0.909661	0.455292	0.087445
128	C	0.363144	0.722615	0.333591
129	N	0.388488	0.694705	0.333629
130	C	0.363144	0.641448	0.333592
131	N	0.309889	0.616106	0.333629
132	C	0.281977	0.641448	0.33359
133	N	0.309889	0.694705	0.333629
134	C	0.391132	0.613464	0.333959
135	C	0.446659	0.640121	0.33434
136	C	0.474297	0.612654	0.335401
137	C	0.447161	0.557436	0.336161
138	C	0.391942	0.530297	0.335405
139	C	0.364472	0.557933	0.334337
140	C	0.39113	0.778588	0.333955
141	C	0.446658	0.807457	0.334333
142	C	0.474296	0.862565	0.335391
143	C	0.44716	0.890648	0.336154
144	C	0.391941	0.862565	0.335398
145	C	0.364471	0.807457	0.334338
146	C	0.226005	0.613464	0.333957
147	C	0.197135	0.640121	0.334338
148	C	0.142029	0.612654	0.335388
149	C	0.113946	0.557432	0.336147
150	C	0.142028	0.530297	0.335391
151	C	0.197134	0.557933	0.334332
152	H	0.514354	0.882016	0.336218
153	H	0.467907	0.788695	0.334212
154	H	0.371337	0.88202	0.336208
155	H	0.32446	0.788695	0.334204
156	H	0.215896	0.680131	0.334204
157	H	0.122574	0.633255	0.336208
158	H	0.215897	0.536686	0.334212
159	H	0.122575	0.49024	0.336214
160	H	0.324462	0.536686	0.334209
161	H	0.371338	0.49024	0.336214
162	H	0.514356	0.633259	0.336208
163	H	0.467907	0.680131	0.334204
164	C	0.642367	0.281064	0.333534
165	N	0.617024	0.308972	0.333562
166	C	0.642369	0.362226	0.333534
167	N	0.69562	0.387571	0.33356
168	C	0.72353	0.362225	0.333533
169	N	0.695622	0.308972	0.33356
170	C	0.614383	0.390211	0.333801
171	C	0.558854	0.363551	0.334123
172	C	0.531219	0.391027	0.33498
173	C	0.55835	0.446242	0.335388
174	C	0.613565	0.473373	0.334973
175	C	0.641043	0.445741	0.334124
176	C	0.614382	0.225093	0.333803
177	C	0.558854	0.196224	0.334132
178	C	0.53122	0.141113	0.33498
179	C	0.55835	0.113029	0.335391
180	C	0.613567	0.141113	0.334983
181	C	0.641041	0.196224	0.334126
182	C	0.779501	0.390211	0.333799
183	C	0.80837	0.363551	0.334127
184	C	0.863479	0.391025	0.334983
185	C	0.891562	0.446242	0.335401
186	C	0.863483	0.473377	0.334966
187	C	0.808371	0.445741	0.334122
188	H	0.49116	0.121653	0.335729
189	H	0.537602	0.214986	0.334096
190	H	0.634168	0.121654	0.335736
191	H	0.681054	0.214986	0.334103
192	H	0.789608	0.323538	0.334093
193	H	0.88294	0.370424	0.335736
194	H	0.789607	0.466988	0.334098
195	H	0.882938	0.513434	0.335739
196	H	0.681055	0.466988	0.334099
197	H	0.634165	0.513434	0.335729
198	H	0.491158	0.370425	0.335733
199	H	0.537604	0.323538	0.334102
200	C	0.530613	0.47398	0.338215
201	C	0.517014	0.487582	0.379841
202	C	0.48895	0.515645	0.380262
203	C	0.474901	0.529694	0.339008
204	C	0.488885	0.515712	0.631626
205	C	0.516322	0.488275	0.631211
206	C	0.476763	0.527831	0.423029
207	N	0.491283	0.513312	0.460844
208	C	0.517671	0.486925	0.459696
209	H	0.52579	0.478806	0.601004
210	H	0.479177	0.52542	0.601633
211	O	0.450578	0.554015	0.429543
212	N	0.530271	0.47432	0.419797
213	H	0.527901	0.476692	0.489091
214	H	0.549309	0.455288	0.420767
215	C	0.530616	0.057554	0.338215
216	C	0.517014	0.03035	0.379841
217	C	0.48895	0.974225	0.380259
218	C	0.474901	0.946127	0.339005
219	C	0.488885	0.974096	0.631626
220	C	0.516324	0.028971	0.631211
221	C	0.47676	0.949846	0.423026
222	N	0.491279	0.978884	0.460841
223	C	0.517669	0.03166	0.459696
224	H	0.525794	0.04791	0.601004
225	H	0.479177	0.95468	0.601629
226	O	0.450578	0.897478	0.429536
227	N	0.530272	0.056867	0.419797
228	H	0.527899	0.052121	0.489091
229	H	0.549304	0.094938	0.420771
230	C	0.947037	0.47398	0.338222
231	C	0.974246	0.487582	0.379844
232	C	0.058466	0.529694	0.339005
233	C	0.975618	0.488271	0.631214
234	C	0.972941	0.486933	0.4597
235	H	0.956679	0.478802	0.601007
236	O	0.107124	0.554023	0.429529
237	N	0.947731	0.474324	0.419804
238	H	0.952482	0.4767	0.489097
239	H	0.909661	0.455292	0.420777
240	C	0.363144	0.722615	0.666925
241	N	0.388488	0.694705	0.666962
242	C	0.363144	0.641448	0.666925
243	N	0.309889	0.616106	0.666962
244	C	0.281977	0.641448	0.666922
245	N	0.309889	0.694705	0.666962
246	C	0.391132	0.613464	0.667293
247	C	0.446659	0.640121	0.667675
248	C	0.474297	0.612654	0.668735
249	C	0.447161	0.557436	0.669495
250	C	0.391942	0.530297	0.668735
251	C	0.364472	0.557933	0.667671
252	C	0.39113	0.778588	0.667286
253	C	0.446658	0.807457	0.667665
254	C	0.474296	0.862565	0.668725
255	C	0.44716	0.890648	0.669488
256	C	0.391941	0.862565	0.668732
257	C	0.364471	0.807457	0.667671
258	C	0.226005	0.613464	0.66729
259	C	0.197135	0.640121	0.667671
260	C	0.142029	0.612654	0.668722
261	C	0.113946	0.557432	0.669481
262	C	0.142028	0.530297	0.668725
263	C	0.197134	0.557933	0.667665
264	H	0.514354	0.882016	0.669548
265	H	0.467907	0.788695	0.667544
266	H	0.371337	0.88202	0.669541
267	H	0.32446	0.788695	0.667537
268	H	0.215896	0.680131	0.667537
269	H	0.122574	0.633255	0.669541
270	H	0.215897	0.536686	0.667544
271	H	0.122575	0.49024	0.669548
272	H	0.324462	0.536686	0.667541
273	H	0.371338	0.49024	0.669545
274	H	0.514356	0.633259	0.669541
275	H	0.467907	0.680131	0.667537
276	C	0.642367	0.281064	0.666865
277	N	0.617024	0.308972	0.666895
278	C	0.642369	0.362226	0.666868
279	N	0.69562	0.387571	0.666892
280	C	0.72353	0.362225	0.666865
281	N	0.695622	0.308972	0.666892
282	C	0.614383	0.390211	0.667136
283	C	0.558854	0.363551	0.667457
284	C	0.531219	0.391027	0.668314
285	C	0.55835	0.446242	0.668722
286	C	0.613565	0.473373	0.668304
287	C	0.641043	0.445741	0.667457
288	C	0.614382	0.225093	0.667136
289	C	0.558854	0.196224	0.667464
290	C	0.53122	0.141113	0.668314
291	C	0.55835	0.113029	0.668725
292	C	0.613567	0.141113	0.668317
293	C	0.641041	0.196224	0.667457
294	C	0.779501	0.390211	0.667133
295	C	0.80837	0.363551	0.66746
296	C	0.863479	0.391025	0.668317
297	C	0.891562	0.446242	0.668735
298	C	0.863483	0.473377	0.6683
299	C	0.808371	0.445741	0.667454
300	H	0.49116	0.121653	0.669063
301	H	0.537602	0.214986	0.66743
302	H	0.634168	0.121654	0.66907
303	H	0.681054	0.214986	0.667437
304	H	0.789608	0.323538	0.667427
305	H	0.88294	0.370424	0.66907
306	H	0.789607	0.466988	0.66743
307	H	0.882938	0.513434	0.669073
308	H	0.681055	0.466988	0.66743
309	H	0.634165	0.513434	0.669063
310	H	0.491158	0.370425	0.669066
311	H	0.537604	0.323538	0.667434
312	C	0.530613	0.47398	0.671549
313	C	0.517014	0.487582	0.713175
314	C	0.48895	0.515645	0.713596
315	C	0.474901	0.529694	0.672342
316	C	0.488885	0.515712	0.96496
317	C	0.516322	0.488275	0.964545
318	C	0.476763	0.527831	0.756363
319	N	0.491283	0.513312	0.794178
320	C	0.517671	0.486925	0.793027
321	H	0.52579	0.478806	0.934334
322	H	0.479177	0.52542	0.934967
323	O	0.450578	0.554015	0.762873
324	N	0.530271	0.47432	0.753131
325	H	0.527901	0.476692	0.822425
326	H	0.549309	0.455288	0.754101
327	C	0.530616	0.057554	0.671549
328	C	0.517014	0.03035	0.713175
329	C	0.48895	0.974225	0.713593
330	C	0.474901	0.946127	0.672338
331	C	0.488885	0.974096	0.96496
332	C	0.516324	0.028971	0.964545
333	C	0.47676	0.949846	0.756359
334	N	0.491279	0.978884	0.794174
335	C	0.517669	0.03166	0.793027
336	H	0.525794	0.04791	0.934338
337	H	0.479177	0.95468	0.934963
338	O	0.450578	0.897478	0.762866
339	N	0.530272	0.056867	0.753131
340	H	0.527899	0.052121	0.822425
341	H	0.549304	0.094938	0.754104
342	C	0.947037	0.47398	0.671555
343	C	0.974246	0.487582	0.713175
344	C	0.058466	0.529694	0.672335
345	C	0.975618	0.488271	0.964548
346	C	0.972941	0.486933	0.79303
347	H	0.956679	0.478802	0.934341
348	O	0.107124	0.554023	0.762863
349	N	0.947731	0.474324	0.753134
350	H	0.952482	0.4767	0.822428
351	H	0.909661	0.455292	0.754111
