data_C225H135N27_2018-02-15_10:42:00
#******************************************
#
# CIF file created by Zeo++
# Zeo++ is an open source package to
# analyze microporous materials
#
#*******************************************

_cell_length_a		37.3436   
_cell_length_b		37.3182   
_cell_length_c		29.7774   
_cell_angle_alpha		90   
_cell_angle_beta		90   
_cell_angle_gamma		120.036   

_symmetry_space_group_name_H-M		'P1'
_symmetry_Int_Tables_number		1
_symmetry_cell_setting		Monoclinic

loop_
_symmetry_equiv_pos_as_xyz
'+x,+y,+z'

loop_
_atom_site_label
_atom_site_type_symbol
_atom_site_fract_x
_atom_site_fract_y
_atom_site_fract_z
1	C	0.460205	0.916037	0.002195
2	C	0.476718	0.891237	0.320514
3	C	0.453517	0.847707	0.322792
4	C	0.412564	0.827114	0.006318
5	C	0.396029	0.851772	0.021478
6	C	0.419391	0.89527	0.019552
7	C	0.389009	0.784074	0.010317
8	C	0.388413	0.756869	0.31355
9	C	0.363815	0.714191	0.317739
10	C	0.320156	0.69495	0.317542
11	C	0.294979	0.651346	0.317719
12	C	0.314191	0.626899	0.317308
13	C	0.357758	0.645344	0.317511
14	C	0.382219	0.689035	0.31733
15	C	0.375808	0.620755	0.313253
16	C	0.402646	0.620371	0.009826
17	C	0.422105	0.596837	0.339099
18	C	0.46342	0.613534	0.02057
19	C	0.401592	0.555732	0.322593
20	C	0.421902	0.532554	0.320257
21	C	0.463324	0.549225	0.001624
22	C	0.483526	0.590183	0.018649
23	C	0.252311	0.633307	0.313623
24	C	0.225046	0.605659	0.009618
25	C	0.182053	0.586344	0.338965
26	C	0.161582	0.607436	0.990643
27	C	0.157327	0.544567	0.352357
28	C	0.113863	0.524586	0.350581
29	C	0.093276	0.545406	0.001712
30	C	0.118093	0.587254	0.988383
31	H	0.506512	0.904581	0.309158
32	H	0.467274	0.831219	0.312801
33	H	0.405919	0.911672	0.030785
34	H	0.366639	0.838236	0.034277
35	H	0.413813	0.702682	0.315663
36	H	0.306544	0.712934	0.316063
37	H	0.296223	0.595284	0.315648
38	H	0.178131	0.638064	0.982002
39	H	0.479384	0.643038	0.033115
40	H	0.51349	0.603762	0.029623
41	H	0.405355	0.502641	0.309209
42	H	0.371263	0.541865	0.312878
43	H	0.104751	0.604118	0.978412
44	H	0.097342	0.494292	0.360525
45	H	0.170791	0.528186	0.363786
46	H	0.410144	0.639055	0.03635
47	H	0.36817	0.6027	0.286254
48	H	0.370476	0.77285	0.036943
49	H	0.4063	0.767325	0.286439
50	H	0.236181	0.597457	0.035603
51	H	0.241879	0.641649	0.287195
52	C	0.552865	0.091779	0.004084
53	C	0.53487	0.117175	0.341809
54	C	0.559479	0.160624	0.342474
55	C	0.602976	0.180178	0.004891
56	C	0.62102	0.154947	0.999723
57	C	0.596318	0.11149	0.99883
58	C	0.628089	0.222953	0.008075
59	C	0.622582	0.2503	0.317213
60	C	0.647515	0.293233	0.320136
61	C	0.69124	0.312916	0.319955
62	C	0.716372	0.35656	0.320168
63	C	0.696713	0.380626	0.319729
64	C	0.653103	0.362094	0.319953
65	C	0.62902	0.318339	0.319707
66	C	0.635147	0.38703	0.316901
67	C	0.602144	0.381406	0.007527
68	C	0.584538	0.406531	0.337605
69	C	0.541288	0.388479	0.99884
70	C	0.608492	0.450036	0.342138
71	C	0.589686	0.47464	0.341477
72	C	0.546312	0.456635	0.003512
73	C	0.52257	0.413179	0.997964
74	C	0.759283	0.374506	0.317303
75	C	0.786713	0.407877	0.007481
76	C	0.829429	0.425279	0.337773
77	C	0.848745	0.401281	0.01036
78	C	0.854841	0.468378	0.331128
79	C	0.89825	0.486916	0.330457
80	C	0.91776	0.463166	0.004012
81	C	0.892142	0.419906	0.009809
82	H	0.503485	0.104261	0.344462
83	H	0.545333	0.177847	0.346786
84	H	0.61061	0.094284	0.995804
85	H	0.652448	0.168012	0.996876
86	H	0.597413	0.304478	0.318239
87	H	0.705057	0.295125	0.318669
88	H	0.714485	0.412254	0.318245
89	H	0.831377	0.370034	0.015707
90	H	0.522911	0.35704	0.995804
91	H	0.491081	0.398864	0.994767
92	H	0.608176	0.506033	0.344318
93	H	0.639843	0.464187	0.346648
94	H	0.904841	0.401337	0.013544
95	H	0.915573	0.518318	0.326304
96	H	0.841946	0.486786	0.327058
97	H	0.588842	0.357575	0.028634
98	H	0.648266	0.410976	0.295886
99	H	0.651838	0.23354	0.029279
100	H	0.598725	0.239417	0.296094
101	H	0.776257	0.421552	0.028125
102	H	0.770119	0.361045	0.296806
103	C	0.526704	0.481119	0.004307
104	N	0.497035	0.473198	0.306327
105	C	0.475646	0.493711	0.303456
106	C	0.483943	0.52563	0.001134
107	N	0.513342	0.533188	0.032619
108	C	0.534999	0.512976	0.035766
109	H	0.454498	0.486093	0.278258
110	C	0.560116	0.522782	0.0697
111	N	0.582185	0.53143	0.099768
112	C	0.528365	0.047654	0.004856
113	N	0.536277	0.025885	0.306889
114	C	0.515732	0.983945	0.30401
115	C	0.483808	0.960303	0.001675
116	N	0.476264	0.982184	0.033133
117	C	0.496476	0.024091	0.036263
118	H	0.523345	0.970409	0.278816
119	C	0.486688	0.039438	0.070181
120	N	0.478059	0.052899	0.100227
121	C	0.961872	0.482626	0.004807
122	N	0.983714	0.512026	0.306562
123	C	0.025621	0.533244	0.303578
124	C	0.049114	0.524952	0.001379
125	N	0.027263	0.495883	0.033171
126	C	0.98538	0.474439	0.036433
127	H	0.03927	0.554237	0.27824
128	C	0.970085	0.449868	0.070818
129	N	0.956705	0.428313	0.101311
130	C	0.460205	0.916037	0.335528
131	C	0.476718	0.891237	0.653847
132	C	0.453517	0.847707	0.656128
133	C	0.412564	0.827114	0.339653
134	C	0.396029	0.851772	0.354812
135	C	0.419391	0.89527	0.352885
136	C	0.389009	0.784074	0.343649
137	C	0.388413	0.756869	0.646882
138	C	0.363815	0.714191	0.651074
139	C	0.320156	0.69495	0.650875
140	C	0.294979	0.651346	0.651053
141	C	0.314191	0.626899	0.65064
142	C	0.357758	0.645344	0.650845
143	C	0.382219	0.689035	0.650664
144	C	0.375808	0.620755	0.646587
145	C	0.402646	0.620371	0.343159
146	C	0.422105	0.596837	0.672435
147	C	0.46342	0.613534	0.353902
148	C	0.401592	0.555732	0.655926
149	C	0.421902	0.532554	0.653589
150	C	0.463324	0.549225	0.334956
151	C	0.483526	0.590183	0.351985
152	C	0.252311	0.633307	0.646956
153	C	0.225046	0.605659	0.342951
154	C	0.182053	0.586344	0.672298
155	C	0.161582	0.607436	0.323976
156	C	0.157327	0.544567	0.68569
157	C	0.113863	0.524586	0.683917
158	C	0.093276	0.545406	0.335044
159	C	0.118093	0.587254	0.321716
160	H	0.506512	0.904581	0.64249
161	H	0.467274	0.831219	0.646134
162	H	0.405919	0.911672	0.364118
163	H	0.366639	0.838236	0.367611
164	H	0.413813	0.702682	0.648998
165	H	0.306544	0.712934	0.649398
166	H	0.296223	0.595284	0.648981
167	H	0.178131	0.638064	0.315335
168	H	0.479384	0.643038	0.366449
169	H	0.51349	0.603762	0.362956
170	H	0.405355	0.502641	0.642544
171	H	0.371263	0.541865	0.646211
172	H	0.104751	0.604118	0.311744
173	H	0.097342	0.494292	0.693858
174	H	0.170791	0.528186	0.697118
175	H	0.410144	0.639055	0.369683
176	H	0.36817	0.6027	0.619587
177	H	0.370476	0.77285	0.370277
178	H	0.4063	0.767325	0.619775
179	H	0.236181	0.597457	0.368937
180	H	0.241879	0.641649	0.620527
181	C	0.552865	0.091779	0.337417
182	C	0.53487	0.117175	0.675142
183	C	0.559479	0.160624	0.675807
184	C	0.602976	0.180178	0.338226
185	C	0.62102	0.154947	0.333055
186	C	0.596318	0.11149	0.332164
187	C	0.628089	0.222953	0.34141
188	C	0.622582	0.2503	0.650546
189	C	0.647515	0.293233	0.653471
190	C	0.69124	0.312916	0.65329
191	C	0.716372	0.35656	0.653502
192	C	0.696713	0.380626	0.653062
193	C	0.653103	0.362094	0.653287
194	C	0.62902	0.318339	0.653041
195	C	0.635147	0.38703	0.650234
196	C	0.602144	0.381406	0.340862
197	C	0.584538	0.406531	0.670941
198	C	0.541288	0.388479	0.332173
199	C	0.608492	0.450036	0.675475
200	C	0.589686	0.47464	0.67481
201	C	0.546312	0.456635	0.336846
202	C	0.52257	0.413179	0.331297
203	C	0.759283	0.374506	0.650637
204	C	0.786713	0.407877	0.340815
205	C	0.829429	0.425279	0.671109
206	C	0.848745	0.401281	0.343693
207	C	0.854841	0.468378	0.664463
208	C	0.89825	0.486916	0.663791
209	C	0.91776	0.463166	0.337346
210	C	0.892142	0.419906	0.343142
211	H	0.503485	0.104261	0.677795
212	H	0.545333	0.177847	0.680119
213	H	0.61061	0.094284	0.329135
214	H	0.652448	0.168012	0.330208
215	H	0.597413	0.304478	0.651574
216	H	0.705057	0.295125	0.652004
217	H	0.714485	0.412254	0.651577
218	H	0.831377	0.370034	0.349039
219	H	0.522911	0.35704	0.329136
220	H	0.491081	0.398864	0.328098
221	H	0.608176	0.506033	0.677654
222	H	0.639843	0.464187	0.679981
223	H	0.904841	0.401337	0.346877
224	H	0.915573	0.518318	0.659637
225	H	0.841946	0.486786	0.660393
226	H	0.588842	0.357575	0.361969
227	H	0.648266	0.410976	0.629218
228	H	0.651838	0.23354	0.362614
229	H	0.598725	0.239417	0.629426
230	H	0.776257	0.421552	0.361458
231	H	0.770119	0.361045	0.630138
232	C	0.526704	0.481119	0.337642
233	N	0.497035	0.473198	0.639662
234	C	0.475646	0.493711	0.636791
235	C	0.483943	0.52563	0.334467
236	N	0.513342	0.533188	0.365952
237	C	0.534999	0.512976	0.369098
238	H	0.454498	0.486093	0.611591
239	C	0.560116	0.522782	0.403033
240	N	0.582185	0.53143	0.433103
241	C	0.528365	0.047654	0.338189
242	N	0.536277	0.025885	0.640223
243	C	0.515732	0.983945	0.637345
244	C	0.483808	0.960303	0.335007
245	N	0.476264	0.982184	0.366465
246	C	0.496476	0.024091	0.369595
247	H	0.523345	0.970409	0.612151
248	C	0.486688	0.039438	0.403514
249	N	0.478059	0.052899	0.43356
250	C	0.961872	0.482626	0.338142
251	N	0.983714	0.512026	0.639897
252	C	0.025621	0.533244	0.636912
253	C	0.049114	0.524952	0.334713
254	N	0.027263	0.495883	0.366506
255	C	0.98538	0.474439	0.369767
256	H	0.03927	0.554237	0.611574
257	C	0.970085	0.449868	0.404152
258	N	0.956705	0.428313	0.434645
259	C	0.460205	0.916037	0.668862
260	C	0.476718	0.891237	0.98718
261	C	0.453517	0.847707	0.989461
262	C	0.412564	0.827114	0.672986
263	C	0.396029	0.851772	0.688145
264	C	0.419391	0.89527	0.686218
265	C	0.389009	0.784074	0.676982
266	C	0.388413	0.756869	0.980219
267	C	0.363815	0.714191	0.984406
268	C	0.320156	0.69495	0.984208
269	C	0.294979	0.651346	0.984386
270	C	0.314191	0.626899	0.983977
271	C	0.357758	0.645344	0.984178
272	C	0.382219	0.689035	0.983997
273	C	0.375808	0.620755	0.97992
274	C	0.402646	0.620371	0.676492
275	C	0.422105	0.596837	0.005767
276	C	0.46342	0.613534	0.687239
277	C	0.401592	0.555732	0.989259
278	C	0.421902	0.532554	0.986925
279	C	0.463324	0.549225	0.668291
280	C	0.483526	0.590183	0.685318
281	C	0.252311	0.633307	0.980289
282	C	0.225046	0.605659	0.676284
283	C	0.182053	0.586344	0.005631
284	C	0.161582	0.607436	0.65731
285	C	0.157327	0.544567	0.019024
286	C	0.113863	0.524586	0.017248
287	C	0.093276	0.545406	0.668379
288	C	0.118093	0.587254	0.65505
289	H	0.506512	0.904581	0.975826
290	H	0.467274	0.831219	0.97947
291	H	0.405919	0.911672	0.697454
292	H	0.366639	0.838236	0.700944
293	H	0.413813	0.702682	0.982331
294	H	0.306544	0.712934	0.982731
295	H	0.296223	0.595284	0.982314
296	H	0.178131	0.638064	0.648669
297	H	0.479384	0.643038	0.699782
298	H	0.51349	0.603762	0.696289
299	H	0.405355	0.502641	0.975877
300	H	0.371263	0.541865	0.979544
301	H	0.104751	0.604118	0.645079
302	H	0.097342	0.494292	0.027189
303	H	0.170791	0.528186	0.030451
304	H	0.410144	0.639055	0.703019
305	H	0.36817	0.6027	0.952923
306	H	0.370476	0.77285	0.70361
307	H	0.4063	0.767325	0.953108
308	H	0.236181	0.597457	0.70227
309	H	0.241879	0.641649	0.953863
310	C	0.552865	0.091779	0.670753
311	C	0.53487	0.117175	0.008476
312	C	0.559479	0.160624	0.00914
313	C	0.602976	0.180178	0.671559
314	C	0.62102	0.154947	0.666387
315	C	0.596318	0.11149	0.665497
316	C	0.628089	0.222953	0.674742
317	C	0.622582	0.2503	0.983879
318	C	0.647515	0.293233	0.986804
319	C	0.69124	0.312916	0.986623
320	C	0.716372	0.35656	0.986834
321	C	0.696713	0.380626	0.986398
322	C	0.653103	0.362094	0.98662
323	C	0.62902	0.318339	0.986374
324	C	0.635147	0.38703	0.98357
325	C	0.602144	0.381406	0.674195
326	C	0.584538	0.406531	0.004272
327	C	0.541288	0.388479	0.665507
328	C	0.608492	0.450036	0.008806
329	C	0.589686	0.47464	0.008143
330	C	0.546312	0.456635	0.670179
331	C	0.52257	0.413179	0.664631
332	C	0.759283	0.374506	0.98397
333	C	0.786713	0.407877	0.674148
334	C	0.829429	0.425279	0.00444
335	C	0.848745	0.401281	0.677026
336	C	0.854841	0.468378	0.997796
337	C	0.89825	0.486916	0.997124
338	C	0.91776	0.463166	0.670679
339	C	0.892142	0.419906	0.676475
340	H	0.503485	0.104261	0.011127
341	H	0.545333	0.177847	0.013453
342	H	0.61061	0.094284	0.662468
343	H	0.652448	0.168012	0.663543
344	H	0.597413	0.304478	0.984907
345	H	0.705057	0.295125	0.985337
346	H	0.714485	0.412254	0.984914
347	H	0.831377	0.370034	0.682372
348	H	0.522911	0.35704	0.662468
349	H	0.491081	0.398864	0.66143
350	H	0.608176	0.506033	0.010985
351	H	0.639843	0.464187	0.013315
352	H	0.904841	0.401337	0.680213
353	H	0.915573	0.518318	0.99297
354	H	0.841946	0.486786	0.993726
355	H	0.588842	0.357575	0.695302
356	H	0.648266	0.410976	0.962554
357	H	0.651838	0.23354	0.695946
358	H	0.598725	0.239417	0.962763
359	H	0.776257	0.421552	0.694791
360	H	0.770119	0.361045	0.963475
361	C	0.526704	0.481119	0.670975
362	N	0.497035	0.473198	0.972995
363	C	0.475646	0.493711	0.970124
364	C	0.483943	0.52563	0.667801
365	N	0.513342	0.533188	0.699288
366	C	0.534999	0.512976	0.702435
367	H	0.454498	0.486093	0.944927
368	C	0.560116	0.522782	0.736366
369	N	0.582185	0.53143	0.766436
370	C	0.528365	0.047654	0.671522
371	N	0.536277	0.025885	0.973556
372	C	0.515732	0.983945	0.970678
373	C	0.483808	0.960303	0.668342
374	N	0.476264	0.982184	0.699802
375	C	0.496476	0.024091	0.702932
376	H	0.523345	0.970409	0.945484
377	C	0.486688	0.039438	0.73685
378	N	0.478059	0.052899	0.766896
379	C	0.961872	0.482626	0.671475
380	N	0.983714	0.512026	0.97323
381	C	0.025621	0.533244	0.970245
382	C	0.049114	0.524952	0.668046
383	N	0.027263	0.495883	0.699839
384	C	0.98538	0.474439	0.7031
385	H	0.03927	0.554237	0.944907
386	C	0.970085	0.449868	0.737485
387	N	0.956705	0.428313	0.767977
