data_C216H126N24O18_2018-02-15_10:40:50
#******************************************
#
# CIF file created by Zeo++
# Zeo++ is an open source package to
# analyze microporous materials
#
#*******************************************

_cell_length_a		32.2431   
_cell_length_b		32.2431   
_cell_length_c		29.2306   
_cell_angle_alpha		90   
_cell_angle_beta		90   
_cell_angle_gamma		120   

_symmetry_space_group_name_H-M		'P1'
_symmetry_Int_Tables_number		1
_symmetry_cell_setting		Monoclinic

loop_
_symmetry_equiv_pos_as_xyz
'+x,+y,+z'

loop_
_atom_site_label
_atom_site_type_symbol
_atom_site_fract_x
_atom_site_fract_y
_atom_site_fract_z
1	C	0.223086	0.61088	0.973041
2	C	0.197516	0.603646	0.014652
3	C	0.225822	0.62292	0.054701
4	H	0.205348	0.597142	0.942987
5	H	0.210242	0.620492	0.08572
6	C	0.043401	0.528146	0.018314
7	C	0.117149	0.575562	0.311487
8	C	0.145611	0.578076	0.016252
9	C	0.119675	0.553974	0.056241
10	N	0.06858	0.551206	0.313603
11	C	0.069009	0.529754	0.058392
12	C	0.043354	0.507533	0.098911
13	H	0.137863	0.553118	0.084473
14	H	0.132291	0.592748	0.28156
15	O	0.066683	0.509015	0.138284
16	H	0.072898	0.538417	0.154315
17	C	0.223086	0.61088	0.306374
18	C	0.197516	0.603646	0.347984
19	C	0.225822	0.62292	0.388035
20	H	0.205348	0.597142	0.276321
21	H	0.210242	0.620492	0.419054
22	C	0.043401	0.528146	0.351648
23	C	0.117149	0.575562	0.64482
24	C	0.145611	0.578076	0.349586
25	C	0.119675	0.553974	0.389574
26	N	0.06858	0.551206	0.646938
27	C	0.069009	0.529754	0.391726
28	C	0.043354	0.507533	0.432245
29	H	0.137863	0.553118	0.417805
30	H	0.132291	0.592748	0.614893
31	O	0.066683	0.509015	0.471619
32	H	0.072898	0.538417	0.48765
33	C	0.223086	0.61088	0.639706
34	C	0.197516	0.603646	0.68132
35	C	0.225822	0.62292	0.721367
36	H	0.205348	0.597142	0.609655
37	H	0.210242	0.620492	0.752386
38	C	0.043401	0.528146	0.68498
39	C	0.117149	0.575562	0.978156
40	C	0.145611	0.578076	0.682918
41	C	0.119675	0.553974	0.72291
42	N	0.06858	0.551206	0.98027
43	C	0.069009	0.529754	0.725058
44	C	0.043354	0.507533	0.765577
45	H	0.137863	0.553118	0.751141
46	H	0.132291	0.592748	0.948228
47	O	0.066683	0.509015	0.804951
48	H	0.072898	0.538417	0.820982
49	N	0.351866	0.680209	0.009859
50	C	0.377782	0.655083	0.01121
51	C	0.376963	0.731249	0.010382
52	C	0.300889	0.6545	0.011706
53	C	0.273553	0.636439	0.971444
54	C	0.276235	0.646879	0.053461
55	C	0.399398	0.59889	0.977047
56	C	0.374032	0.623962	0.975474
57	C	0.403205	0.757682	0.97183
58	C	0.402236	0.807186	0.050195
59	C	0.377156	0.756798	0.049663
60	H	0.352329	0.618891	0.948129
61	H	0.39385	0.57554	0.95102
62	H	0.290335	0.641557	0.940596
63	H	0.404128	0.740109	0.94308
64	H	0.400249	0.82387	0.079163
65	H	0.359265	0.738938	0.078431
66	H	0.294875	0.659109	0.083325
67	N	0.351866	0.680209	0.343192
68	C	0.377782	0.655083	0.344543
69	C	0.376963	0.731249	0.343715
70	C	0.300889	0.6545	0.345039
71	C	0.273553	0.636439	0.304775
72	C	0.276235	0.646879	0.386793
73	C	0.399398	0.59889	0.31038
74	C	0.374032	0.623962	0.308807
75	C	0.403205	0.757682	0.305162
76	C	0.402236	0.807186	0.383529
77	C	0.377156	0.756798	0.382996
78	H	0.352329	0.618891	0.28146
79	H	0.39385	0.57554	0.284352
80	H	0.290335	0.641557	0.273931
81	H	0.404128	0.740109	0.276414
82	H	0.400249	0.82387	0.412496
83	H	0.359265	0.738938	0.411763
84	H	0.294875	0.659109	0.416659
85	N	0.351866	0.680209	0.676524
86	C	0.377782	0.655083	0.677875
87	C	0.376963	0.731249	0.677047
88	C	0.300889	0.6545	0.678371
89	C	0.273553	0.636439	0.638108
90	C	0.276235	0.646879	0.720129
91	C	0.399398	0.59889	0.643715
92	C	0.374032	0.623962	0.642142
93	C	0.403205	0.757682	0.638495
94	C	0.402236	0.807186	0.716861
95	C	0.377156	0.756798	0.716331
96	H	0.352329	0.618891	0.614794
97	H	0.39385	0.57554	0.617685
98	H	0.290335	0.641557	0.607264
99	H	0.404128	0.740109	0.609748
100	H	0.400249	0.82387	0.745831
101	H	0.359265	0.738938	0.745099
102	H	0.294875	0.659109	0.749991
103	C	0.40851	0.661071	0.048098
104	C	0.434841	0.63693	0.048981
105	C	0.430773	0.604742	0.013716
106	C	0.428728	0.808224	0.972552
107	C	0.428933	0.83426	0.011795
108	H	0.41245	0.683762	0.074292
109	H	0.441984	0.898582	0.277963
110	C	0.40851	0.661071	0.381432
111	C	0.434841	0.63693	0.382315
112	C	0.430773	0.604742	0.347051
113	C	0.428728	0.808224	0.305885
114	C	0.428933	0.83426	0.345128
115	H	0.41245	0.683762	0.407624
116	H	0.441984	0.898582	0.611297
117	C	0.40851	0.661071	0.714764
118	C	0.434841	0.63693	0.715647
119	C	0.430773	0.604742	0.680383
120	C	0.428728	0.808224	0.63922
121	C	0.428933	0.83426	0.678463
122	H	0.41245	0.683762	0.740959
123	H	0.441984	0.898582	0.944629
124	H	0.457808	0.644017	0.075732
125	H	0.448133	0.825837	0.944215
126	N	0.685472	0.346745	0.010143
127	C	0.659848	0.372194	0.011002
128	C	0.660496	0.295757	0.011193
129	C	0.736421	0.372427	0.011963
130	C	0.76078	0.398896	0.051193
131	C	0.811245	0.425014	0.052575
132	C	0.839336	0.425519	0.014945
133	C	0.814347	0.398789	0.975724
134	C	0.763912	0.372943	0.974167
135	C	0.630991	0.369028	0.048632
136	C	0.605842	0.394276	0.049141
137	C	0.609494	0.425132	0.012787
138	C	0.639053	0.42837	0.97533
139	C	0.663379	0.402176	0.974256
140	C	0.643691	0.270626	0.052751
141	C	0.617519	0.220216	0.053534
142	C	0.608715	0.192399	0.013189
143	C	0.627054	0.218415	0.971793
144	C	0.651729	0.268913	0.970667
145	H	0.584228	0.389166	0.07662
146	H	0.627828	0.348157	0.07608
147	H	0.684419	0.40565	0.946709
148	H	0.644108	0.450716	0.948499
149	H	0.741756	0.399523	0.078901
150	H	0.827263	0.444496	0.081356
151	H	0.650032	0.288928	0.082827
152	H	0.604409	0.204269	0.084434
153	H	0.623224	0.200966	0.941585
154	H	0.663553	0.286077	0.940011
155	H	0.747328	0.354507	0.945122
156	H	0.83265	0.397148	0.947873
157	C	0.5844	0.451773	0.014237
158	C	0.567535	0.463344	0.3075
159	N	0.543496	0.487879	0.309743
160	C	0.533308	0.502698	0.016222
161	C	0.548354	0.492005	0.058032
162	C	0.574522	0.467505	0.056093
163	H	0.586979	0.46141	0.086017
164	C	0.508002	0.528078	0.016428
165	C	0.471359	0.565234	0.308092
166	C	0.45696	0.579125	0.015071
167	C	0.469821	0.566115	0.056897
168	H	0.572086	0.45264	0.275949
169	N	0.495406	0.540716	0.310035
170	C	0.495841	0.541418	0.05845
171	C	0.509963	0.529708	0.100144
172	C	0.536615	0.505778	0.099919
173	H	0.459364	0.574022	0.08709
174	H	0.464847	0.574043	0.276426
175	O	0.50019	0.543162	0.141086
176	H	0.469396	0.516242	0.151328
177	O	0.551031	0.496728	0.140691
178	H	0.525356	0.465031	0.150586
179	C	0.582674	0.140509	0.014384
180	C	0.556438	0.112296	0.30962
181	N	0.532472	0.063707	0.311397
182	C	0.53092	0.03831	0.015744
183	C	0.555258	0.063693	0.055807
184	C	0.581427	0.114369	0.053999
185	H	0.600726	0.132424	0.082174
186	C	0.505654	0.987615	0.015441
187	C	0.458641	0.914078	0.308049
188	C	0.455239	0.885808	0.013153
189	C	0.478754	0.911167	0.053467
190	H	0.554042	0.127658	0.279976
191	N	0.482989	0.962658	0.310439
192	C	0.503855	0.961827	0.055498
193	C	0.526719	0.987261	0.095908
194	C	0.55245	0.037845	0.095997
195	H	0.478336	0.892362	0.081809
196	O	0.52525	0.963728	0.135135
197	H	0.496433	0.958407	0.151721
198	O	0.574605	0.060958	0.135356
199	H	0.551448	0.066847	0.151877
200	C	0.890884	0.451705	0.016549
201	C	0.919041	0.47595	0.311155
202	N	0.967613	0.500105	0.313301
203	C	0.992704	0.502985	0.018364
204	C	0.967069	0.47985	0.058772
205	C	0.916361	0.454445	0.057036
206	H	0.897621	0.436578	0.085601
207	H	0.903467	0.47648	0.2809
208	C	0.992762	0.482983	0.099162
209	O	0.969443	0.461679	0.138698
210	H	0.964354	0.485548	0.15485
211	H	0.457808	0.644017	0.409064
212	H	0.448133	0.825837	0.277549
213	N	0.685472	0.346745	0.343475
214	C	0.659848	0.372194	0.344334
215	C	0.660496	0.295757	0.344526
216	C	0.736421	0.372427	0.345295
217	C	0.76078	0.398896	0.384525
218	C	0.811245	0.425014	0.385907
219	C	0.839336	0.425519	0.348279
220	C	0.814347	0.398789	0.309056
221	C	0.763912	0.372943	0.3075
222	C	0.630991	0.369028	0.381966
223	C	0.605842	0.394276	0.382476
224	C	0.609494	0.425132	0.34612
225	C	0.639053	0.42837	0.308662
226	C	0.663379	0.402176	0.307589
227	C	0.643691	0.270626	0.386085
228	C	0.617519	0.220216	0.386868
229	C	0.608715	0.192399	0.346524
230	C	0.627054	0.218415	0.305126
231	C	0.651729	0.268913	0.303998
232	H	0.584228	0.389166	0.409954
233	H	0.627828	0.348157	0.409413
234	H	0.684419	0.40565	0.280044
235	H	0.644108	0.450716	0.281831
236	H	0.741756	0.399523	0.412236
237	H	0.827263	0.444496	0.414688
238	H	0.650032	0.288928	0.41616
239	H	0.604409	0.204269	0.417767
240	H	0.623224	0.200966	0.274917
241	H	0.663553	0.286077	0.273345
242	H	0.747328	0.354507	0.278454
243	H	0.83265	0.397148	0.281207
244	C	0.5844	0.451773	0.347571
245	C	0.567535	0.463344	0.640832
246	N	0.543496	0.487879	0.643076
247	C	0.533308	0.502698	0.349555
248	C	0.548354	0.492005	0.391364
249	C	0.574522	0.467505	0.389427
250	H	0.586979	0.46141	0.419351
251	C	0.508002	0.528078	0.34976
252	C	0.471359	0.565234	0.641427
253	C	0.45696	0.579125	0.348405
254	C	0.469821	0.566115	0.390231
255	H	0.572086	0.45264	0.609282
256	N	0.495406	0.540716	0.64337
257	C	0.495841	0.541418	0.391784
258	C	0.509963	0.529708	0.433477
259	C	0.536615	0.505778	0.433251
260	H	0.459364	0.574022	0.420422
261	H	0.464847	0.574043	0.609761
262	O	0.50019	0.543162	0.47442
263	H	0.469396	0.516242	0.484663
264	O	0.551031	0.496728	0.474024
265	H	0.525356	0.465031	0.483921
266	C	0.582674	0.140509	0.347718
267	C	0.556438	0.112296	0.642953
268	N	0.532472	0.063707	0.644732
269	C	0.53092	0.03831	0.349079
270	C	0.555258	0.063693	0.38914
271	C	0.581427	0.114369	0.387334
272	H	0.600726	0.132424	0.415506
273	C	0.505654	0.987615	0.348775
274	C	0.458641	0.914078	0.641382
275	C	0.455239	0.885808	0.346486
276	C	0.478754	0.911167	0.3868
277	H	0.554042	0.127658	0.613309
278	N	0.482989	0.962658	0.643774
279	C	0.503855	0.961827	0.388832
280	C	0.526719	0.987261	0.429242
281	C	0.55245	0.037845	0.429331
282	H	0.478336	0.892362	0.415143
283	O	0.52525	0.963728	0.468468
284	H	0.496433	0.958407	0.485053
285	O	0.574605	0.060958	0.46869
286	H	0.551448	0.066847	0.48521
287	C	0.890884	0.451705	0.349883
288	C	0.919041	0.47595	0.644489
289	N	0.967613	0.500105	0.646634
290	C	0.992704	0.502985	0.351696
291	C	0.967069	0.47985	0.392106
292	C	0.916361	0.454445	0.390372
293	H	0.897621	0.436578	0.418934
294	H	0.903467	0.47648	0.614233
295	C	0.992762	0.482983	0.432495
296	O	0.969443	0.461679	0.472032
297	H	0.964354	0.485548	0.488183
298	H	0.457808	0.644017	0.7424
299	H	0.448133	0.825837	0.610883
300	N	0.685472	0.346745	0.676811
301	C	0.659848	0.372194	0.67767
302	C	0.660496	0.295757	0.677858
303	C	0.736421	0.372427	0.678631
304	C	0.76078	0.398896	0.71786
305	C	0.811245	0.425014	0.719242
306	C	0.839336	0.425519	0.681611
307	C	0.814347	0.398789	0.642388
308	C	0.763912	0.372943	0.640835
309	C	0.630991	0.369028	0.715298
310	C	0.605842	0.394276	0.715808
311	C	0.609494	0.425132	0.679452
312	C	0.639053	0.42837	0.641995
313	C	0.663379	0.402176	0.64092
314	C	0.643691	0.270626	0.719417
315	C	0.617519	0.220216	0.7202
316	C	0.608715	0.192399	0.679856
317	C	0.627054	0.218415	0.638461
318	C	0.651729	0.268913	0.637332
319	H	0.584228	0.389166	0.743286
320	H	0.627828	0.348157	0.742749
321	H	0.684419	0.40565	0.613377
322	H	0.644108	0.450716	0.615163
323	H	0.741756	0.399523	0.745568
324	H	0.827263	0.444496	0.748024
325	H	0.650032	0.288928	0.749495
326	H	0.604409	0.204269	0.751103
327	H	0.623224	0.200966	0.608249
328	H	0.663553	0.286077	0.606679
329	H	0.747328	0.354507	0.611787
330	H	0.83265	0.397148	0.614541
331	C	0.5844	0.451773	0.680906
332	C	0.567535	0.463344	0.974167
333	N	0.543496	0.487879	0.976411
334	C	0.533308	0.502698	0.68289
335	C	0.548354	0.492005	0.724699
336	C	0.574522	0.467505	0.722759
337	H	0.586979	0.46141	0.752683
338	C	0.508002	0.528078	0.683095
339	C	0.471359	0.565234	0.974759
340	C	0.45696	0.579125	0.681737
341	C	0.469821	0.566115	0.723563
342	H	0.572086	0.45264	0.942614
343	N	0.495406	0.540716	0.976702
344	C	0.495841	0.541418	0.725116
345	C	0.509963	0.529708	0.766812
346	C	0.536615	0.505778	0.766587
347	H	0.459364	0.574022	0.753758
348	H	0.464847	0.574043	0.943093
349	O	0.50019	0.543162	0.807752
350	H	0.469396	0.516242	0.817995
351	O	0.551031	0.496728	0.807359
352	H	0.525356	0.465031	0.817253
353	C	0.582674	0.140509	0.68105
354	C	0.556438	0.112296	0.976288
355	N	0.532472	0.063707	0.978064
356	C	0.53092	0.03831	0.682411
357	C	0.555258	0.063693	0.722475
358	C	0.581427	0.114369	0.720666
359	H	0.600726	0.132424	0.748842
360	C	0.505654	0.987615	0.682107
361	C	0.458641	0.914078	0.974714
362	C	0.455239	0.885808	0.679821
363	C	0.478754	0.911167	0.720135
364	H	0.554042	0.127658	0.946644
365	N	0.482989	0.962658	0.977106
366	C	0.503855	0.961827	0.722164
367	C	0.526719	0.987261	0.762574
368	C	0.55245	0.037845	0.762663
369	H	0.478336	0.892362	0.748476
370	O	0.52525	0.963728	0.801803
371	H	0.496433	0.958407	0.818389
372	O	0.574605	0.060958	0.802022
373	H	0.551448	0.066847	0.818542
374	C	0.890884	0.451705	0.683215
375	C	0.919041	0.47595	0.977824
376	N	0.967613	0.500105	0.979969
377	C	0.992704	0.502985	0.685032
378	C	0.967069	0.47985	0.725438
379	C	0.916361	0.454445	0.723704
380	H	0.897621	0.436578	0.752269
381	H	0.903467	0.47648	0.947568
382	C	0.992762	0.482983	0.765831
383	O	0.969443	0.461679	0.805364
384	H	0.964354	0.485548	0.821515
