data_C360H216O12_2018-02-15_10:35:38
#******************************************
#
# CIF file created by Zeo++
# Zeo++ is an open source package to
# analyze microporous materials
#
#*******************************************

_cell_length_a		25.9819   
_cell_length_b		30.0362   
_cell_length_c		29.7724   
_cell_angle_alpha		91.6386   
_cell_angle_beta		89.0529   
_cell_angle_gamma		90.0346   

_symmetry_space_group_name_H-M		'P1'
_symmetry_Int_Tables_number		1
_symmetry_cell_setting		Triclinic

loop_
_symmetry_equiv_pos_as_xyz
'+x,+y,+z'

loop_
_atom_site_label
_atom_site_type_symbol
_atom_site_fract_x
_atom_site_fract_y
_atom_site_fract_z
1	C	0.053903	0.003976	0.002112
2	C	0.083301	0.464704	0.008153
3	C	0.137962	0.463271	0.009038
4	C	0.164277	0.504853	0.007724
5	C	0.137727	0.045546	0.001187
6	C	0.083453	0.043406	0.997195
7	H	0.064351	0.435362	0.010837
8	O	0.210604	0.507434	0.028995
9	C	0.99735	0.004035	0.002095
10	C	0.967991	0.46432	0.997141
11	C	0.913565	0.462395	0.001117
12	C	0.886845	0.003486	0.007513
13	C	0.913036	0.045167	0.009001
14	C	0.967731	0.043658	0.008176
15	O	0.839917	0.002229	0.029194
16	H	0.986594	0.073139	0.010901
17	H	0.238438	0.006906	0.006442
18	H	0.81269	0.501357	0.006865
19	H	0.065335	0.071915	0.322028
20	H	0.986439	0.435327	0.322019
21	C	0.247689	0.212875	0.003995
22	C	0.302376	0.214239	0.001463
23	C	0.331314	0.254213	0.004415
24	C	0.303072	0.294514	0.007955
25	C	0.248489	0.296186	0.009635
26	C	0.222373	0.254694	0.008777
27	C	0.387011	0.254023	0.00413
28	C	0.415385	0.219761	0.024371
29	C	0.469648	0.2194	0.023852
30	C	0.498075	0.254031	0.004014
31	C	0.470384	0.288668	0.984253
32	C	0.416139	0.288294	0.98384
33	C	0.219474	0.171826	0.001735
34	C	0.240477	0.132406	0.981363
35	C	0.213461	0.091782	0.980318
36	C	0.16381	0.087446	5.5e-05
37	C	0.141586	0.12709	0.018598
38	C	0.168643	0.167778	0.019638
39	C	0.22111	0.337531	0.010969
40	C	0.170916	0.34227	0.030082
41	C	0.144056	0.383069	0.03035
42	C	0.165164	0.421822	0.010954
43	C	0.21461	0.416364	0.990548
44	C	0.242121	0.376092	0.991337
45	H	0.22968	0.06575	0.962385
46	H	0.275072	0.132923	0.9646
47	H	0.106523	0.12625	0.034711
48	H	0.151388	0.193809	0.036784
49	H	0.153983	0.316479	0.046442
50	H	0.109371	0.384313	0.047002
51	H	0.276223	0.374501	0.973718
52	H	0.230022	0.440767	0.971335
53	H	0.39813	0.313361	0.967692
54	H	0.489613	0.314001	0.968945
55	H	0.488311	0.194108	0.039185
56	H	0.396818	0.194808	0.040756
57	H	0.322279	0.185017	0.999033
58	H	0.183301	0.255242	0.006226
59	H	0.323097	0.323544	0.01241
60	C	0.803396	0.295254	0.003912
61	C	0.748804	0.293734	0.001403
62	C	0.719762	0.253922	0.004369
63	C	0.747882	0.213827	0.007907
64	C	0.802404	0.212257	0.009549
65	C	0.828541	0.253704	0.008656
66	C	0.664066	0.254085	0.004109
67	C	0.634923	0.289524	0.024294
68	C	0.58068	0.289861	0.023764
69	C	0.553002	0.254061	0.004015
70	C	0.581438	0.21826	0.984337
71	C	0.635704	0.21862	0.983904
72	C	0.83169	0.336184	0.001678
73	C	0.811424	0.374499	0.981417
74	C	0.838495	0.415058	0.980392
75	C	0.887473	0.420455	8e-06
76	C	0.909016	0.381826	0.01846
77	C	0.881864	0.34123	0.019549
78	C	0.829754	0.170995	0.010869
79	C	0.879252	0.167369	0.029934
80	C	0.906145	0.126606	0.030178
81	C	0.885753	0.086724	0.010857
82	C	0.837041	0.090986	0.990511
83	C	0.809497	0.131302	0.991267
84	H	0.822908	0.440118	0.962547
85	H	0.777423	0.373077	0.964714
86	H	0.943522	0.383526	0.03449
87	H	0.898555	0.316109	0.036549
88	H	0.895561	0.194096	0.046283
89	H	0.94018	0.126326	0.04686
90	H	0.775971	0.131843	0.973775
91	H	0.822267	0.065432	0.971436
92	H	0.654315	0.19261	0.967799
93	H	0.562792	0.192028	0.969083
94	H	0.561442	0.316059	0.039032
95	H	0.652868	0.315458	0.040594
96	H	0.728987	0.322813	0.998976
97	H	0.867705	0.253013	0.006062
98	H	0.727702	0.185049	0.01239
99	C	0.053903	0.003976	0.335444
100	C	0.083301	0.464703	0.341486
101	C	0.137962	0.46327	0.342369
102	C	0.164277	0.504853	0.341059
103	C	0.137727	0.045546	0.334519
104	C	0.083453	0.043406	0.330528
105	H	0.064351	0.435365	0.344171
106	O	0.210604	0.507433	0.362328
107	C	0.997349	0.004035	0.335428
108	C	0.96799	0.464321	0.330474
109	C	0.913564	0.462393	0.334449
110	C	0.886848	0.003485	0.340847
111	C	0.913035	0.045167	0.342332
112	C	0.96773	0.043658	0.341509
113	O	0.839919	0.002228	0.362527
114	H	0.986592	0.073139	0.344235
115	H	0.238438	0.006906	0.339775
116	H	0.812689	0.501356	0.340198
117	H	0.065335	0.071915	0.65536
118	H	0.986441	0.435326	0.655353
119	C	0.247689	0.212875	0.337328
120	C	0.302376	0.214238	0.334795
121	C	0.331314	0.254213	0.337748
122	C	0.303072	0.294514	0.341287
123	C	0.248489	0.296186	0.342968
124	C	0.222373	0.254694	0.342111
125	C	0.387013	0.254023	0.337463
126	C	0.415384	0.219761	0.357704
127	C	0.469647	0.2194	0.357186
128	C	0.498078	0.25403	0.337349
129	C	0.470384	0.288668	0.317585
130	C	0.416138	0.288293	0.317172
131	C	0.219474	0.171826	0.335067
132	C	0.240477	0.132406	0.314695
133	C	0.213462	0.091782	0.313653
134	C	0.16381	0.087446	0.333388
135	C	0.141586	0.12709	0.35193
136	C	0.168643	0.167778	0.352972
137	C	0.22111	0.33753	0.344302
138	C	0.170916	0.342269	0.363417
139	C	0.144056	0.383068	0.363683
140	C	0.165164	0.421821	0.344288
141	C	0.21461	0.416362	0.323882
142	C	0.242121	0.37609	0.324669
143	H	0.22968	0.06575	0.295717
144	H	0.275072	0.132923	0.297934
145	H	0.106523	0.12625	0.368045
146	H	0.151388	0.193809	0.370118
147	H	0.153983	0.316479	0.379777
148	H	0.109371	0.384312	0.380335
149	H	0.276222	0.374499	0.307051
150	H	0.230022	0.440768	0.304667
151	H	0.398129	0.31336	0.301025
152	H	0.489612	0.314001	0.302277
153	H	0.48831	0.194108	0.372518
154	H	0.39682	0.194808	0.374091
155	H	0.32228	0.185016	0.332367
156	H	0.183301	0.255241	0.33956
157	H	0.323097	0.323544	0.345743
158	C	0.803398	0.295254	0.337244
159	C	0.748803	0.293734	0.334735
160	C	0.71976	0.253922	0.337701
161	C	0.747885	0.213827	0.34124
162	C	0.802406	0.212257	0.342884
163	C	0.828539	0.253704	0.34199
164	C	0.664069	0.254085	0.337443
165	C	0.634926	0.289524	0.357627
166	C	0.580683	0.289861	0.357096
167	C	0.553001	0.254061	0.337349
168	C	0.581437	0.218259	0.317671
169	C	0.635703	0.21862	0.317238
170	C	0.831693	0.336184	0.335012
171	C	0.811427	0.374497	0.314749
172	C	0.838494	0.415059	0.313726
173	C	0.887476	0.420452	0.333341
174	C	0.909018	0.381826	0.351793
175	C	0.881862	0.341228	0.352881
176	C	0.829752	0.170995	0.344201
177	C	0.879254	0.167369	0.363269
178	C	0.906147	0.126606	0.363511
179	C	0.885756	0.086724	0.344191
180	C	0.83704	0.090986	0.323845
181	C	0.809497	0.131302	0.324599
182	H	0.822907	0.440119	0.295879
183	H	0.777426	0.373075	0.298048
184	H	0.943525	0.383525	0.367823
185	H	0.898554	0.316109	0.369883
186	H	0.895559	0.194096	0.379615
187	H	0.940182	0.126326	0.380193
188	H	0.77597	0.131842	0.307109
189	H	0.822266	0.065432	0.304767
190	H	0.654314	0.19261	0.301133
191	H	0.562791	0.192028	0.302417
192	H	0.561445	0.316059	0.372367
193	H	0.652867	0.315458	0.373926
194	H	0.728986	0.322813	0.332311
195	H	0.867704	0.253013	0.339395
196	H	0.727704	0.185049	0.345723
197	C	0.053903	0.003976	0.668776
198	C	0.083301	0.464703	0.674822
199	C	0.137962	0.46327	0.675705
200	C	0.164278	0.504852	0.674391
201	C	0.137727	0.045546	0.667852
202	C	0.083453	0.043406	0.663862
203	H	0.064351	0.435364	0.677503
204	O	0.210604	0.507432	0.695661
205	C	0.997352	0.004035	0.668762
206	C	0.967988	0.464321	0.663809
207	C	0.913566	0.462396	0.667781
208	C	0.886846	0.003485	0.67418
209	C	0.913037	0.045167	0.675668
210	C	0.967732	0.043658	0.674842
211	O	0.839918	0.002228	0.695859
212	H	0.986595	0.073139	0.677567
213	H	0.238438	0.006906	0.673108
214	H	0.812691	0.501359	0.673531
215	H	0.065335	0.071915	0.988696
216	H	0.986439	0.435325	0.988686
217	C	0.247689	0.212875	0.670661
218	C	0.302376	0.214239	0.66813
219	C	0.331314	0.254213	0.671081
220	C	0.303072	0.294514	0.674623
221	C	0.248489	0.296185	0.6763
222	C	0.222372	0.254694	0.675443
223	C	0.387012	0.254023	0.670795
224	C	0.415386	0.21976	0.691037
225	C	0.469649	0.2194	0.690519
226	C	0.498076	0.254031	0.670681
227	C	0.470386	0.288668	0.650917
228	C	0.416136	0.288294	0.650507
229	C	0.219474	0.171826	0.668399
230	C	0.240477	0.132406	0.648027
231	C	0.213461	0.091782	0.646985
232	C	0.16381	0.087447	0.666722
233	C	0.141586	0.127089	0.685266
234	C	0.168643	0.167778	0.686305
235	C	0.22111	0.33753	0.677634
236	C	0.170916	0.342269	0.69675
237	C	0.144056	0.383068	0.697015
238	C	0.165164	0.421824	0.677621
239	C	0.21461	0.416365	0.657215
240	C	0.242121	0.376093	0.658001
241	H	0.22968	0.06575	0.629049
242	H	0.275072	0.132923	0.631268
243	H	0.106523	0.12625	0.701377
244	H	0.151388	0.193809	0.703451
245	H	0.153983	0.316479	0.713109
246	H	0.109371	0.384312	0.713671
247	H	0.276223	0.374501	0.640385
248	H	0.230022	0.440767	0.637999
249	H	0.398128	0.313361	0.634359
250	H	0.489611	0.314001	0.635609
251	H	0.488308	0.194108	0.70585
252	H	0.396819	0.194808	0.707423
253	H	0.322279	0.185017	0.665701
254	H	0.183301	0.255241	0.672892
255	H	0.323097	0.323544	0.679076
256	C	0.803397	0.295255	0.67058
257	C	0.748805	0.293733	0.668067
258	C	0.719759	0.253922	0.671034
259	C	0.747883	0.213827	0.674573
260	C	0.802404	0.212257	0.676216
261	C	0.828542	0.253704	0.675322
262	C	0.664067	0.254085	0.670775
263	C	0.634924	0.289524	0.690959
264	C	0.580681	0.289862	0.690432
265	C	0.553003	0.254062	0.670681
266	C	0.58144	0.21826	0.651005
267	C	0.635701	0.21862	0.650571
268	C	0.831691	0.336184	0.668346
269	C	0.811426	0.374496	0.648081
270	C	0.838496	0.415058	0.647059
271	C	0.887474	0.420455	0.666675
272	C	0.909017	0.381825	0.685125
273	C	0.881864	0.341228	0.686214
274	C	0.829751	0.170995	0.677537
275	C	0.879252	0.167369	0.696602
276	C	0.906146	0.126606	0.696844
277	C	0.885754	0.086724	0.677523
278	C	0.837043	0.090987	0.657178
279	C	0.809499	0.131302	0.657931
280	H	0.82291	0.440119	0.629211
281	H	0.777425	0.373074	0.631382
282	H	0.943523	0.383528	0.701156
283	H	0.898556	0.316109	0.703216
284	H	0.895561	0.194096	0.712948
285	H	0.940181	0.126326	0.713526
286	H	0.775972	0.131842	0.640442
287	H	0.822264	0.065432	0.6381
288	H	0.654316	0.19261	0.634467
289	H	0.562793	0.192028	0.635751
290	H	0.561443	0.316059	0.705699
291	H	0.652869	0.315458	0.707258
292	H	0.728984	0.322813	0.665644
293	H	0.867706	0.253013	0.672728
294	H	0.727703	0.185049	0.679056
295	C	0.053903	0.503977	0.002112
296	C	0.083301	0.964704	0.008153
297	C	0.137962	0.963271	0.009038
298	C	0.164277	0.004853	0.007724
299	C	0.137727	0.545547	0.001187
300	C	0.083453	0.543406	0.997195
301	H	0.064351	0.935362	0.010837
302	O	0.210604	0.007433	0.028995
303	C	0.997349	0.504036	0.002095
304	C	0.967989	0.96432	0.997141
305	C	0.913563	0.962395	0.001117
306	C	0.886846	0.503486	0.007513
307	C	0.913035	0.545168	0.009001
308	C	0.96773	0.543656	0.008176
309	O	0.839918	0.502229	0.029194
310	H	0.986593	0.573138	0.010901
311	H	0.238438	0.506904	0.006442
312	H	0.812689	0.001357	0.006865
313	H	0.065335	0.571915	0.322028
314	H	0.986441	0.935327	0.322019
315	C	0.247689	0.712873	0.003995
316	C	0.302376	0.714238	0.001463
317	C	0.331314	0.754212	0.004415
318	C	0.303072	0.794514	0.007955
319	C	0.248489	0.796186	0.009635
320	C	0.222373	0.754695	0.008777
321	C	0.387014	0.754024	0.00413
322	C	0.415384	0.71976	0.024371
323	C	0.469647	0.719399	0.023852
324	C	0.498078	0.754031	0.004014
325	C	0.470383	0.788667	0.984253
326	C	0.416138	0.788292	0.98384
327	C	0.219474	0.671827	0.001735
328	C	0.240477	0.632407	0.981363
329	C	0.213462	0.591783	0.980318
330	C	0.16381	0.587448	5.5e-05
331	C	0.141586	0.627091	0.018598
332	C	0.168643	0.667778	0.019638
333	C	0.22111	0.837531	0.010969
334	C	0.170916	0.842271	0.030082
335	C	0.144056	0.883066	0.03035
336	C	0.165164	0.921822	0.010954
337	C	0.21461	0.916364	0.990548
338	C	0.242121	0.876092	0.991337
339	H	0.22968	0.565749	0.962385
340	H	0.275072	0.632924	0.9646
341	H	0.106523	0.626249	0.034711
342	H	0.151388	0.69381	0.036784
343	H	0.153982	0.816479	0.046442
344	H	0.109371	0.884313	0.047002
345	H	0.276223	0.874501	0.973718
346	H	0.230022	0.940767	0.971335
347	H	0.398129	0.81336	0.967692
348	H	0.489612	0.814002	0.968945
349	H	0.48831	0.694108	0.039185
350	H	0.396821	0.694808	0.040756
351	H	0.32228	0.685018	0.999033
352	H	0.183301	0.755242	0.006226
353	H	0.323098	0.823545	0.01241
354	C	0.803398	0.795255	0.003912
355	C	0.748802	0.793734	0.001403
356	C	0.71976	0.753921	0.004369
357	C	0.747881	0.713826	0.007907
358	C	0.802406	0.712258	0.009549
359	C	0.82854	0.753703	0.008656
360	C	0.664069	0.754087	0.004109
361	C	0.634926	0.789523	0.024294
362	C	0.580683	0.789861	0.023764
363	C	0.553001	0.754061	0.004015
364	C	0.581441	0.718261	0.984337
365	C	0.635702	0.718621	0.983904
366	C	0.831692	0.836184	0.001678
367	C	0.811427	0.874499	0.981417
368	C	0.838493	0.915058	0.980392
369	C	0.887475	0.920455	8e-06
370	C	0.909015	0.881826	0.01846
371	C	0.881862	0.84123	0.019549
372	C	0.829752	0.670995	0.010869
373	C	0.87925	0.667367	0.029934
374	C	0.906148	0.626607	0.030178
375	C	0.885756	0.586723	0.010857
376	C	0.83704	0.590986	0.990511
377	C	0.809496	0.631302	0.991267
378	H	0.822907	0.940118	0.962547
379	H	0.777426	0.873077	0.964714
380	H	0.943525	0.883526	0.03449
381	H	0.898554	0.816109	0.036549
382	H	0.895559	0.694096	0.046283
383	H	0.940182	0.626327	0.04686
384	H	0.77597	0.631842	0.973775
385	H	0.822265	0.565432	0.971436
386	H	0.654314	0.692609	0.967799
387	H	0.56279	0.69203	0.969083
388	H	0.561441	0.816059	0.039032
389	H	0.652867	0.815458	0.040594
390	H	0.728986	0.822813	0.998976
391	H	0.867704	0.753013	0.006062
392	H	0.727705	0.685048	0.01239
393	C	0.053903	0.503975	0.335444
394	C	0.083301	0.964703	0.341486
395	C	0.137962	0.96327	0.342369
396	C	0.164277	0.004853	0.341059
397	C	0.137727	0.545545	0.334519
398	C	0.083453	0.543408	0.330528
399	H	0.064351	0.935365	0.344171
400	O	0.210604	0.007433	0.362328
401	C	0.997352	0.504034	0.335428
402	C	0.967989	0.964322	0.330474
403	C	0.913563	0.962393	0.334449
404	C	0.886845	0.503485	0.340847
405	C	0.913033	0.545167	0.342332
406	C	0.967732	0.543659	0.341509
407	O	0.83992	0.502228	0.362527
408	H	0.986591	0.57314	0.344235
409	H	0.238438	0.506907	0.339775
410	H	0.812691	0.001356	0.340198
411	H	0.065335	0.571915	0.65536
412	H	0.98644	0.935326	0.655353
413	C	0.247689	0.712876	0.337328
414	C	0.302376	0.714239	0.334795
415	C	0.331314	0.754211	0.337748
416	C	0.303072	0.794513	0.341287
417	C	0.248489	0.796185	0.342968
418	C	0.222373	0.754695	0.342111
419	C	0.387012	0.754023	0.337463
420	C	0.415387	0.719759	0.357704
421	C	0.469649	0.719398	0.357186
422	C	0.498077	0.75403	0.337349
423	C	0.470386	0.788668	0.317585
424	C	0.416137	0.788293	0.317172
425	C	0.219474	0.671825	0.335067
426	C	0.240477	0.632408	0.314695
427	C	0.213462	0.591784	0.313653
428	C	0.16381	0.587446	0.333388
429	C	0.141586	0.62709	0.35193
430	C	0.168643	0.667778	0.352972
431	C	0.22111	0.83753	0.344302
432	C	0.170916	0.84227	0.363417
433	C	0.144056	0.883068	0.363683
434	C	0.165164	0.921821	0.344288
435	C	0.21461	0.916362	0.323882
436	C	0.242121	0.87609	0.324669
437	H	0.22968	0.56575	0.295717
438	H	0.275072	0.632922	0.297934
439	H	0.106523	0.626249	0.368045
440	H	0.151388	0.693809	0.370118
441	H	0.153983	0.816479	0.379777
442	H	0.109371	0.884312	0.380335
443	H	0.276222	0.874499	0.307051
444	H	0.230022	0.940768	0.304667
445	H	0.398128	0.813362	0.301025
446	H	0.489611	0.814	0.302278
447	H	0.488308	0.694107	0.372518
448	H	0.396819	0.694807	0.374091
449	H	0.32228	0.685016	0.332367
450	H	0.183301	0.755242	0.33956
451	H	0.323097	0.823545	0.345743
452	C	0.803397	0.795254	0.337244
453	C	0.748805	0.793735	0.334735
454	C	0.719759	0.75392	0.337701
455	C	0.747884	0.713826	0.34124
456	C	0.802405	0.712258	0.342884
457	C	0.828542	0.753706	0.34199
458	C	0.664067	0.754086	0.337443
459	C	0.634924	0.789523	0.357627
460	C	0.580681	0.789861	0.357096
461	C	0.553003	0.75406	0.337349
462	C	0.58144	0.718259	0.317671
463	C	0.635701	0.718619	0.317238
464	C	0.831691	0.836185	0.335011
465	C	0.811426	0.874497	0.314749
466	C	0.838496	0.915059	0.313726
467	C	0.887475	0.920452	0.333341
468	C	0.909017	0.881826	0.351793
469	C	0.881861	0.841229	0.352881
470	C	0.829751	0.670995	0.344201
471	C	0.879253	0.66737	0.363269
472	C	0.906146	0.626606	0.363511
473	C	0.885754	0.586723	0.344191
474	C	0.837039	0.590987	0.323845
475	C	0.809499	0.6313	0.324599
476	H	0.822906	0.940119	0.295879
477	H	0.777425	0.873075	0.298048
478	H	0.943524	0.883525	0.367823
479	H	0.898552	0.816108	0.369883
480	H	0.895562	0.694095	0.379615
481	H	0.940181	0.626326	0.380193
482	H	0.775969	0.631843	0.307109
483	H	0.822265	0.56543	0.304767
484	H	0.654317	0.69261	0.301133
485	H	0.562793	0.692027	0.302418
486	H	0.561444	0.816059	0.372363
487	H	0.65287	0.815457	0.373926
488	H	0.728985	0.822811	0.332311
489	H	0.867702	0.753013	0.339395
490	H	0.727703	0.685048	0.345723
491	C	0.053903	0.503977	0.668776
492	C	0.083301	0.964703	0.674822
493	C	0.137962	0.96327	0.675705
494	C	0.164278	0.004853	0.674391
495	C	0.137727	0.545544	0.667852
496	C	0.083453	0.543407	0.663862
497	H	0.064351	0.935364	0.677503
498	O	0.210604	0.007433	0.695661
499	C	0.99735	0.504033	0.668762
500	C	0.967991	0.964321	0.663809
501	C	0.913565	0.962396	0.667781
502	C	0.886847	0.503484	0.67418
503	C	0.913036	0.545166	0.675668
504	C	0.967731	0.543658	0.674842
505	O	0.839919	0.502228	0.695859
506	H	0.986594	0.57314	0.677567
507	H	0.238438	0.506907	0.673108
508	H	0.81269	0.001359	0.673531
509	H	0.065335	0.571914	0.988696
510	H	0.986438	0.935325	0.988686
511	C	0.247689	0.712875	0.670661
512	C	0.302376	0.714239	0.66813
513	C	0.331314	0.754214	0.671081
514	C	0.303072	0.794513	0.674623
515	C	0.248489	0.796185	0.6763
516	C	0.222372	0.754694	0.675443
517	C	0.387011	0.754023	0.670795
518	C	0.415385	0.719762	0.691037
519	C	0.469648	0.719401	0.690519
520	C	0.498075	0.75403	0.670681
521	C	0.470385	0.788667	0.650917
522	C	0.416139	0.788293	0.650507
523	C	0.219474	0.671824	0.668399
524	C	0.240477	0.632407	0.648027
525	C	0.213461	0.591783	0.646985
526	C	0.16381	0.587445	0.666722
527	C	0.141586	0.62709	0.685266
528	C	0.168643	0.667777	0.686305
529	C	0.22111	0.837529	0.677634
530	C	0.170916	0.842269	0.69675
531	C	0.144056	0.883068	0.697015
532	C	0.165164	0.921821	0.677621
533	C	0.21461	0.916365	0.657215
534	C	0.242121	0.876089	0.658001
535	H	0.22968	0.565749	0.629049
536	H	0.275072	0.632924	0.631268
537	H	0.106523	0.626251	0.701377
538	H	0.151388	0.693809	0.703451
539	H	0.153983	0.816478	0.713109
540	H	0.109371	0.884312	0.713671
541	H	0.276222	0.874498	0.640385
542	H	0.230022	0.940767	0.637999
543	H	0.39813	0.813361	0.634359
544	H	0.489613	0.814002	0.635609
545	H	0.488311	0.694106	0.70585
546	H	0.396818	0.694807	0.707423
547	H	0.322279	0.685015	0.665701
548	H	0.183301	0.755241	0.672892
549	H	0.323097	0.823544	0.679076
550	C	0.803395	0.795254	0.67058
551	C	0.748804	0.793734	0.668067
552	C	0.719761	0.753923	0.671034
553	C	0.747882	0.713829	0.674573
554	C	0.802403	0.712257	0.676216
555	C	0.82854	0.753705	0.675322
556	C	0.664066	0.754086	0.670775
557	C	0.634927	0.789522	0.690959
558	C	0.58068	0.78986	0.690432
559	C	0.553002	0.754063	0.670681
560	C	0.581438	0.718258	0.651005
561	C	0.635704	0.718619	0.650571
562	C	0.83169	0.836184	0.668346
563	C	0.811424	0.874496	0.648081
564	C	0.838495	0.915059	0.647059
565	C	0.887473	0.920452	0.666675
566	C	0.909016	0.881825	0.685125
567	C	0.881863	0.841228	0.686214
568	C	0.829753	0.670994	0.677537
569	C	0.879251	0.66737	0.696602
570	C	0.906145	0.626606	0.696844
571	C	0.885753	0.586726	0.677523
572	C	0.837042	0.590987	0.657178
573	C	0.809498	0.631303	0.657931
574	H	0.822909	0.940119	0.629211
575	H	0.777424	0.873074	0.631382
576	H	0.943522	0.883528	0.701156
577	H	0.898555	0.816108	0.703216
578	H	0.89556	0.694094	0.712948
579	H	0.940179	0.626326	0.713526
580	H	0.775971	0.631843	0.640442
581	H	0.822267	0.565433	0.6381
582	H	0.654315	0.69261	0.634467
583	H	0.562792	0.692027	0.635751
584	H	0.561442	0.816058	0.705699
585	H	0.652868	0.815456	0.707258
586	H	0.728987	0.822814	0.665644
587	H	0.867705	0.753012	0.672728
588	H	0.727702	0.685047	0.679056
