data_C252H36N180_2018-02-15_10:37:51
#******************************************
#
# CIF file created by Zeo++
# Zeo++ is an open source package to
# analyze microporous materials
#
#*******************************************

_cell_length_a		28.7866   
_cell_length_b		28.7866   
_cell_length_c		29.4468   
_cell_angle_alpha		90   
_cell_angle_beta		90   
_cell_angle_gamma		120   

_symmetry_space_group_name_H-M		'P1'
_symmetry_Int_Tables_number		1
_symmetry_cell_setting		Monoclinic

loop_
_symmetry_equiv_pos_as_xyz
'+x,+y,+z'

loop_
_atom_site_label
_atom_site_type_symbol
_atom_site_fract_x
_atom_site_fract_y
_atom_site_fract_z
1	C	0.208087	0.397386	0.010506
2	N	0.153577	0.369906	0.010393
3	C	0.126097	0.315396	0.010492
4	N	0.153576	0.288366	0.01038
5	C	0.208087	0.315396	0.010496
6	N	0.235116	0.369906	0.010394
7	C	0.320091	0.121394	0.008252
8	N	0.374595	0.148885	0.008727
9	C	0.402088	0.20339	0.008252
10	N	0.374597	0.230404	0.008738
11	C	0.320093	0.203392	0.008259
12	N	0.293079	0.148887	0.008734
13	C	0.292022	0.231458	0.010631
14	N	0.27804	0.245437	0.3043
15	C	0.250824	0.272653	0.302278
16	C	0.236118	0.287365	0.009815
17	N	0.250004	0.273482	0.049525
18	C	0.277244	0.24624	0.051774
19	H	0.241467	0.282008	0.271376
20	C	0.28824	0.235242	0.091841
21	N	0.298066	0.225412	0.127106
22	C	0.292019	0.065259	0.010627
23	N	0.278041	0.037294	0.304298
24	C	0.250826	0.482861	0.302281
25	C	0.236117	0.453447	0.009821
26	N	0.25	0.481221	0.049528
27	C	0.27724	0.035703	0.051773
28	H	0.241471	0.464145	0.271381
29	C	0.288239	0.057701	0.091838
30	N	0.298067	0.077357	0.127103
31	C	0.458224	0.23146	0.010624
32	N	0.486185	0.24542	0.304293
33	C	0.040618	0.272635	0.302273
34	C	0.070035	0.287367	0.00981
35	N	0.042266	0.273499	0.04952
36	C	0.487785	0.246258	0.051769
37	H	0.05933	0.281977	0.271371
38	C	0.465791	0.235265	0.091835
39	N	0.446136	0.225436	0.127101
40	C	0.208087	0.397386	0.34384
41	N	0.153577	0.369906	0.343725
42	C	0.126097	0.315396	0.343827
43	N	0.153576	0.288366	0.343715
44	C	0.208087	0.315396	0.34383
45	N	0.235116	0.369906	0.343728
46	C	0.320091	0.121394	0.341585
47	N	0.374595	0.148885	0.342061
48	C	0.402088	0.20339	0.341585
49	N	0.374597	0.230404	0.342071
50	C	0.320093	0.203392	0.341592
51	N	0.293079	0.148887	0.342068
52	C	0.292022	0.231458	0.343963
53	N	0.27804	0.245437	0.637631
54	C	0.250824	0.272653	0.635611
55	C	0.236118	0.287365	0.343148
56	N	0.250004	0.273482	0.38286
57	C	0.277244	0.24624	0.385108
58	H	0.241467	0.282008	0.604711
59	C	0.28824	0.235242	0.425173
60	N	0.298066	0.225412	0.46044
61	C	0.292019	0.065259	0.343959
62	N	0.278041	0.037294	0.637631
63	C	0.250826	0.482861	0.635614
64	C	0.236117	0.453447	0.343154
65	N	0.25	0.481221	0.382863
66	C	0.27724	0.035703	0.385108
67	H	0.241471	0.464145	0.604714
68	C	0.288239	0.057701	0.42517
69	N	0.298067	0.077357	0.460437
70	C	0.458224	0.23146	0.343959
71	N	0.486185	0.24542	0.637628
72	C	0.040618	0.272635	0.635607
73	C	0.070035	0.287367	0.343144
74	N	0.042266	0.273499	0.382853
75	C	0.487785	0.246258	0.385101
76	H	0.05933	0.281977	0.604704
77	C	0.465791	0.235265	0.42517
78	N	0.446136	0.225436	0.460434
79	C	0.208087	0.397386	0.677174
80	N	0.153577	0.369906	0.677058
81	C	0.126097	0.315396	0.67716
82	N	0.153576	0.288366	0.677048
83	C	0.208087	0.315396	0.677163
84	N	0.235116	0.369906	0.677062
85	C	0.320091	0.121394	0.674919
86	N	0.374595	0.148885	0.675394
87	C	0.402088	0.20339	0.674919
88	N	0.374597	0.230404	0.675404
89	C	0.320093	0.203392	0.674926
90	N	0.293079	0.148887	0.675401
91	C	0.292022	0.231458	0.677296
92	N	0.27804	0.245437	0.970968
93	C	0.250824	0.272653	0.968944
94	C	0.236118	0.287365	0.676481
95	N	0.250004	0.273482	0.716193
96	C	0.277244	0.24624	0.718441
97	H	0.241467	0.282008	0.938044
98	C	0.28824	0.235242	0.758507
99	N	0.298066	0.225412	0.793774
100	C	0.292019	0.065259	0.677293
101	N	0.278041	0.037294	0.970964
102	C	0.250826	0.482861	0.968947
103	C	0.236117	0.453447	0.676488
104	N	0.25	0.481221	0.716197
105	C	0.27724	0.035703	0.718441
106	H	0.241471	0.464145	0.938047
107	C	0.288239	0.057701	0.758503
108	N	0.298067	0.077357	0.79377
109	C	0.458224	0.23146	0.677293
110	N	0.486185	0.24542	0.970961
111	C	0.040618	0.272635	0.96894
112	C	0.070035	0.287367	0.676477
113	N	0.042266	0.273499	0.716186
114	C	0.487785	0.246258	0.718435
115	H	0.05933	0.281977	0.938037
116	C	0.465791	0.235265	0.758503
117	N	0.446136	0.225436	0.793767
118	C	0.208087	0.897387	0.010506
119	N	0.153577	0.869906	0.010393
120	C	0.126097	0.815397	0.010492
121	N	0.153576	0.788366	0.01038
122	C	0.208087	0.815397	0.010496
123	N	0.235116	0.869906	0.010394
124	C	0.32009	0.621394	0.008252
125	N	0.374596	0.648887	0.008727
126	C	0.402089	0.703391	0.008252
127	N	0.374597	0.730403	0.008738
128	C	0.320092	0.703391	0.008259
129	N	0.293078	0.648887	0.008734
130	C	0.292022	0.731458	0.010631
131	N	0.27804	0.745437	0.304299
132	C	0.250824	0.772654	0.302278
133	C	0.236119	0.787367	0.009815
134	N	0.250003	0.77348	0.049525
135	C	0.277244	0.74624	0.051774
136	H	0.241467	0.782008	0.271376
137	C	0.288239	0.735241	0.091841
138	N	0.298067	0.725413	0.127106
139	C	0.29202	0.56526	0.010627
140	N	0.278042	0.537294	0.304298
141	C	0.250827	0.982863	0.302281
142	C	0.236117	0.953448	0.009821
143	N	0.250001	0.981222	0.049528
144	C	0.277241	0.535705	0.051773
145	H	0.241472	0.964146	0.271381
146	C	0.288238	0.557699	0.091838
147	N	0.298068	0.577358	0.127103
148	C	0.458223	0.731458	0.010624
149	N	0.486186	0.745421	0.304293
150	C	0.040617	0.772633	0.302273
151	C	0.070035	0.787367	0.00981
152	N	0.042266	0.7735	0.04952
153	C	0.487785	0.74626	0.051769
154	H	0.059329	0.781976	0.271371
155	C	0.46579	0.735265	0.091835
156	N	0.446137	0.725437	0.127102
157	C	0.208087	0.897387	0.34384
158	N	0.153577	0.869906	0.343725
159	C	0.126097	0.815397	0.343827
160	N	0.153576	0.788366	0.343715
161	C	0.208087	0.815397	0.34383
162	N	0.235116	0.869906	0.343728
163	C	0.32009	0.621394	0.341585
164	N	0.374596	0.648887	0.342061
165	C	0.402089	0.703391	0.341585
166	N	0.374597	0.730403	0.342071
167	C	0.320092	0.703391	0.341592
168	N	0.293078	0.648887	0.342068
169	C	0.292022	0.731458	0.343963
170	N	0.27804	0.745437	0.637631
171	C	0.250824	0.772654	0.635611
172	C	0.236119	0.787367	0.343148
173	N	0.250003	0.77348	0.38286
174	C	0.277244	0.74624	0.385108
175	H	0.241467	0.782008	0.604711
176	C	0.288239	0.735241	0.425173
177	N	0.298067	0.725413	0.46044
178	C	0.29202	0.56526	0.343959
179	N	0.278042	0.537294	0.637631
180	C	0.250827	0.982863	0.635614
181	C	0.236117	0.953448	0.343154
182	N	0.250001	0.981222	0.38286
183	C	0.277241	0.535705	0.385108
184	H	0.241472	0.964146	0.604714
185	C	0.288238	0.557699	0.42517
186	N	0.298068	0.577358	0.460437
187	C	0.458223	0.731458	0.343959
188	N	0.486186	0.745421	0.637628
189	C	0.040617	0.772633	0.635607
190	C	0.070035	0.787367	0.343144
191	N	0.042266	0.7735	0.382853
192	C	0.487785	0.74626	0.385101
193	H	0.059329	0.781976	0.604704
194	C	0.46579	0.735265	0.42517
195	N	0.446137	0.725437	0.460434
196	C	0.208087	0.897387	0.677174
197	N	0.153577	0.869906	0.677058
198	C	0.126097	0.815397	0.67716
199	N	0.153576	0.788366	0.677048
200	C	0.208087	0.815397	0.677163
201	N	0.235116	0.869906	0.677062
202	C	0.32009	0.621394	0.674919
203	N	0.374596	0.648887	0.675394
204	C	0.402089	0.703391	0.674919
205	N	0.374597	0.730403	0.675404
206	C	0.320092	0.703391	0.674926
207	N	0.293078	0.648887	0.675401
208	C	0.292022	0.731458	0.677296
209	N	0.27804	0.745437	0.970968
210	C	0.250824	0.772654	0.968944
211	C	0.236119	0.787367	0.676481
212	N	0.250003	0.77348	0.716193
213	C	0.277244	0.74624	0.718441
214	H	0.241467	0.782008	0.938044
215	C	0.288239	0.735241	0.758507
216	N	0.298067	0.725413	0.793774
217	C	0.29202	0.56526	0.677293
218	N	0.278042	0.537294	0.970964
219	C	0.250827	0.982863	0.968947
220	C	0.236117	0.953448	0.676488
221	N	0.250001	0.981222	0.716197
222	C	0.277241	0.535705	0.718441
223	H	0.241472	0.964146	0.938047
224	C	0.288238	0.557699	0.758503
225	N	0.298068	0.577358	0.79377
226	C	0.458223	0.731458	0.677293
227	N	0.486186	0.745421	0.970961
228	C	0.040617	0.772633	0.96894
229	C	0.070035	0.787367	0.676477
230	N	0.042266	0.7735	0.716186
231	C	0.487785	0.74626	0.718435
232	H	0.059329	0.781976	0.938037
233	C	0.46579	0.735265	0.758503
234	N	0.446137	0.725437	0.793767
235	C	0.708086	0.397386	0.010506
236	N	0.653577	0.369906	0.010393
237	C	0.626097	0.315396	0.010492
238	N	0.653576	0.288366	0.01038
239	C	0.708086	0.315396	0.010496
240	N	0.735115	0.369906	0.010394
241	C	0.820092	0.121394	0.008252
242	N	0.874596	0.148885	0.008727
243	C	0.902088	0.20339	0.008252
244	N	0.874597	0.230404	0.008738
245	C	0.820093	0.203392	0.008259
246	N	0.79308	0.148887	0.008734
247	C	0.792023	0.231458	0.010631
248	N	0.778041	0.245437	0.3043
249	C	0.750824	0.272653	0.302278
250	C	0.736118	0.287365	0.009815
251	N	0.750005	0.273482	0.049525
252	C	0.777244	0.24624	0.051774
253	H	0.741468	0.282008	0.271376
254	C	0.788242	0.235242	0.091841
255	N	0.798067	0.225412	0.127106
256	C	0.792021	0.065259	0.010627
257	N	0.778042	0.037294	0.304298
258	C	0.750827	0.482861	0.302281
259	C	0.736117	0.453447	0.009821
260	N	0.75	0.481221	0.049528
261	C	0.77724	0.035703	0.051773
262	H	0.741473	0.464145	0.271381
263	C	0.788238	0.057701	0.091838
264	N	0.798067	0.077357	0.127103
265	C	0.958222	0.23146	0.010624
266	N	0.986185	0.24542	0.304293
267	C	0.540617	0.272635	0.302273
268	C	0.570034	0.287367	0.00981
269	N	0.542265	0.273499	0.04952
270	C	0.987785	0.246258	0.051769
271	H	0.559329	0.281977	0.271371
272	C	0.965791	0.235265	0.091835
273	N	0.946137	0.225436	0.127101
274	C	0.708086	0.397386	0.34384
275	N	0.653577	0.369906	0.343725
276	C	0.626097	0.315396	0.343827
277	N	0.653576	0.288366	0.343715
278	C	0.708086	0.315396	0.34383
279	N	0.735115	0.369906	0.343728
280	C	0.820092	0.121394	0.341585
281	N	0.874596	0.148885	0.342061
282	C	0.902088	0.20339	0.341585
283	N	0.874597	0.230404	0.342071
284	C	0.820093	0.203392	0.341592
285	N	0.79308	0.148887	0.342068
286	C	0.792023	0.231458	0.343963
287	N	0.778041	0.245437	0.637631
288	C	0.750824	0.272653	0.635611
289	C	0.736118	0.287365	0.343148
290	N	0.750005	0.273482	0.38286
291	C	0.777244	0.24624	0.385108
292	H	0.741468	0.282008	0.604711
293	C	0.788242	0.235242	0.425173
294	N	0.798067	0.225412	0.46044
295	C	0.792021	0.065259	0.343959
296	N	0.778042	0.037294	0.637631
297	C	0.750827	0.482861	0.635614
298	C	0.736117	0.453447	0.343154
299	N	0.75	0.481221	0.382863
300	C	0.77724	0.035703	0.385108
301	H	0.741473	0.464145	0.604714
302	C	0.788238	0.057701	0.42517
303	N	0.798067	0.077357	0.460437
304	C	0.958222	0.23146	0.343959
305	N	0.986185	0.24542	0.637628
306	C	0.540617	0.272635	0.635607
307	C	0.570034	0.287367	0.343144
308	N	0.542265	0.273499	0.382853
309	C	0.987785	0.246258	0.385101
310	H	0.559329	0.281977	0.604704
311	C	0.965791	0.235265	0.42517
312	N	0.946137	0.225436	0.460434
313	C	0.708086	0.397386	0.677174
314	N	0.653577	0.369906	0.677058
315	C	0.626097	0.315396	0.67716
316	N	0.653576	0.288366	0.677048
317	C	0.708086	0.315396	0.677163
318	N	0.735115	0.369906	0.677062
319	C	0.820092	0.121394	0.674919
320	N	0.874596	0.148885	0.675394
321	C	0.902088	0.20339	0.674919
322	N	0.874597	0.230404	0.675404
323	C	0.820093	0.203392	0.674926
324	N	0.79308	0.148887	0.675401
325	C	0.792023	0.231458	0.677296
326	N	0.778041	0.245437	0.970968
327	C	0.750824	0.272653	0.968944
328	C	0.736118	0.287365	0.676481
329	N	0.750005	0.273482	0.716193
330	C	0.777244	0.24624	0.718441
331	H	0.741468	0.282008	0.938044
332	C	0.788242	0.235242	0.758507
333	N	0.798067	0.225412	0.793774
334	C	0.792021	0.065259	0.677293
335	N	0.778042	0.037294	0.970964
336	C	0.750827	0.482861	0.968947
337	C	0.736117	0.453447	0.676488
338	N	0.75	0.481221	0.716197
339	C	0.77724	0.035703	0.718441
340	H	0.741473	0.464145	0.938047
341	C	0.788238	0.057701	0.758503
342	N	0.798067	0.077357	0.79377
343	C	0.958222	0.23146	0.677293
344	N	0.986185	0.24542	0.970961
345	C	0.540617	0.272635	0.96894
346	C	0.570034	0.287367	0.676477
347	N	0.542265	0.273499	0.716186
348	C	0.987785	0.246258	0.718435
349	H	0.559329	0.281977	0.938037
350	C	0.965791	0.235265	0.758503
351	N	0.946137	0.225436	0.793767
352	C	0.708087	0.897387	0.010506
353	N	0.653577	0.869906	0.010393
354	C	0.626097	0.815397	0.010492
355	N	0.653576	0.788366	0.01038
356	C	0.708087	0.815397	0.010496
357	N	0.735117	0.869906	0.010394
358	C	0.82009	0.621394	0.008252
359	N	0.874595	0.648887	0.008727
360	C	0.902091	0.703391	0.008252
361	N	0.874598	0.730403	0.008738
362	C	0.820091	0.703391	0.008259
363	N	0.793078	0.648887	0.008734
364	C	0.792021	0.731458	0.010631
365	N	0.778039	0.745437	0.304299
366	C	0.750823	0.772654	0.302278
367	C	0.736119	0.787367	0.009815
368	N	0.750003	0.77348	0.049525
369	C	0.777245	0.74624	0.051774
370	H	0.741466	0.782008	0.271376
371	C	0.78824	0.735241	0.091841
372	N	0.798065	0.725413	0.127106
373	C	0.79202	0.56526	0.010627
374	N	0.77804	0.537294	0.304298
375	C	0.750827	0.982863	0.302281
376	C	0.736118	0.953448	0.009821
377	N	0.750001	0.981222	0.049528
378	C	0.777243	0.535705	0.051773
379	H	0.741472	0.964146	0.271381
380	C	0.788239	0.557699	0.091838
381	N	0.798069	0.577358	0.127103
382	C	0.958223	0.731458	0.010624
383	N	0.986187	0.745421	0.304293
384	C	0.540617	0.772633	0.302273
385	C	0.570035	0.787367	0.00981
386	N	0.542266	0.7735	0.04952
387	C	0.987784	0.74626	0.051769
388	H	0.559329	0.781976	0.271371
389	C	0.965789	0.735265	0.091835
390	N	0.946136	0.725437	0.127102
391	C	0.708087	0.897387	0.34384
392	N	0.653577	0.869906	0.343725
393	C	0.626097	0.815397	0.343827
394	N	0.653576	0.788366	0.343715
395	C	0.708087	0.815397	0.34383
396	N	0.735117	0.869906	0.343728
397	C	0.82009	0.621394	0.341585
398	N	0.874595	0.648887	0.342061
399	C	0.902091	0.703391	0.341585
400	N	0.874598	0.730403	0.342071
401	C	0.820091	0.703391	0.341592
402	N	0.793078	0.648887	0.342068
403	C	0.792021	0.731458	0.343963
404	N	0.778039	0.745437	0.637631
405	C	0.750823	0.772654	0.635611
406	C	0.736119	0.787367	0.343148
407	N	0.750003	0.77348	0.38286
408	C	0.777245	0.74624	0.385108
409	H	0.741466	0.782008	0.604711
410	C	0.78824	0.735241	0.425173
411	N	0.798065	0.725413	0.46044
412	C	0.79202	0.56526	0.343959
413	N	0.77804	0.537294	0.637631
414	C	0.750827	0.982863	0.635614
415	C	0.736118	0.953448	0.343154
416	N	0.750001	0.981222	0.38286
417	C	0.777243	0.535705	0.385108
418	H	0.741472	0.964146	0.604714
419	C	0.788239	0.557699	0.42517
420	N	0.798069	0.577358	0.460437
421	C	0.958223	0.731458	0.343959
422	N	0.986187	0.745421	0.637628
423	C	0.540617	0.772633	0.635607
424	C	0.570035	0.787367	0.343144
425	N	0.542266	0.7735	0.382853
426	C	0.987784	0.74626	0.385101
427	H	0.559329	0.781976	0.604704
428	C	0.965789	0.735265	0.42517
429	N	0.946136	0.725437	0.460434
430	C	0.708087	0.897387	0.677174
431	N	0.653577	0.869906	0.677058
432	C	0.626097	0.815397	0.67716
433	N	0.653576	0.788366	0.677048
434	C	0.708087	0.815397	0.677163
435	N	0.735117	0.869906	0.677062
436	C	0.82009	0.621394	0.674919
437	N	0.874595	0.648887	0.675394
438	C	0.902091	0.703391	0.674919
439	N	0.874598	0.730403	0.675404
440	C	0.820091	0.703391	0.674926
441	N	0.793078	0.648887	0.675401
442	C	0.792021	0.731458	0.677296
443	N	0.778039	0.745437	0.970968
444	C	0.750823	0.772654	0.968944
445	C	0.736119	0.787367	0.676481
446	N	0.750003	0.77348	0.716193
447	C	0.777245	0.74624	0.718441
448	H	0.741466	0.782008	0.938044
449	C	0.78824	0.735241	0.758507
450	N	0.798065	0.725413	0.793774
451	C	0.79202	0.56526	0.677293
452	N	0.77804	0.537294	0.970964
453	C	0.750827	0.982863	0.968947
454	C	0.736118	0.953448	0.676488
455	N	0.750001	0.981222	0.716197
456	C	0.777243	0.535705	0.718441
457	H	0.741472	0.964146	0.938047
458	C	0.788239	0.557699	0.758503
459	N	0.798069	0.577358	0.79377
460	C	0.958223	0.731458	0.677293
461	N	0.986187	0.745421	0.970961
462	C	0.540617	0.772633	0.96894
463	C	0.570035	0.787367	0.676477
464	N	0.542266	0.7735	0.716186
465	C	0.987784	0.74626	0.718435
466	H	0.559329	0.781976	0.938037
467	C	0.965789	0.735265	0.758503
468	N	0.946136	0.725437	0.793767
