data_C216H135N81_2018-02-15_10:39:58
#******************************************
#
# CIF file created by Zeo++
# Zeo++ is an open source package to
# analyze microporous materials
#
#*******************************************

_cell_length_a		30.2904   
_cell_length_b		30.2904   
_cell_length_c		29.4432   
_cell_angle_alpha		90   
_cell_angle_beta		90   
_cell_angle_gamma		120   

_symmetry_space_group_name_H-M		'P1'
_symmetry_Int_Tables_number		1
_symmetry_cell_setting		Monoclinic

loop_
_symmetry_equiv_pos_as_xyz
'+x,+y,+z'

loop_
_atom_site_label
_atom_site_type_symbol
_atom_site_fract_x
_atom_site_fract_y
_atom_site_fract_z
1	C	0.121591	0.563226	0.007549
2	H	0.129451	0.636913	0.006248
3	H	0.129614	0.497494	0.009033
4	C	0.067468	0.536103	0.339429
5	N	0.041424	0.523199	0.046101
6	C	0.038644	0.521601	0.298575
7	N	0.059504	0.531932	0.256508
8	H	0.096187	0.550253	0.251955
9	H	0.037884	0.52106	0.229651
10	C	0.121591	0.563226	0.34088
11	H	0.129451	0.636913	0.339582
12	H	0.129614	0.497494	0.342367
13	C	0.067468	0.536103	0.672762
14	N	0.041424	0.523199	0.379435
15	C	0.038644	0.521601	0.631907
16	N	0.059504	0.531932	0.58984
17	H	0.096187	0.550253	0.585289
18	H	0.037884	0.52106	0.562985
19	C	0.121591	0.563226	0.674213
20	H	0.129451	0.636913	0.672915
21	H	0.129614	0.497494	0.6757
22	C	0.067468	0.536103	0.006095
23	N	0.041424	0.523199	0.712768
24	C	0.038644	0.521601	0.965244
25	N	0.059504	0.531932	0.923176
26	H	0.096187	0.550253	0.918622
27	H	0.037884	0.52106	0.896318
28	C	0.202818	0.563237	0.010748
29	C	0.202712	0.644629	0.009444
30	C	0.148876	0.617293	0.007325
31	C	0.148965	0.536556	0.008955
32	C	0.202818	0.563237	0.344082
33	C	0.202712	0.644629	0.342775
34	C	0.148876	0.617293	0.340659
35	C	0.148965	0.536556	0.342289
36	C	0.202818	0.563237	0.677415
37	C	0.202712	0.644629	0.676108
38	C	0.148876	0.617293	0.673992
39	C	0.148965	0.536556	0.675622
40	C	0.228903	0.617049	0.011388
41	H	0.268036	0.636666	0.012814
42	C	0.232177	0.538996	0.013085
43	N	0.255834	0.539575	0.306855
44	C	0.299211	0.536949	0.303773
45	C	0.258918	0.541592	0.053598
46	N	0.244003	0.547264	0.095526
47	H	0.211928	0.546609	0.100319
48	H	0.264167	0.549845	0.122175
49	C	0.256318	0.724958	0.30354
50	C	0.231947	0.698254	0.010245
51	N	0.257713	0.71887	0.049548
52	H	0.243787	0.708684	0.272291
53	C	0.228903	0.617049	0.344721
54	H	0.268036	0.636666	0.346147
55	C	0.232177	0.538996	0.346419
56	N	0.255834	0.539575	0.640188
57	C	0.299211	0.536949	0.637107
58	C	0.258918	0.541592	0.386931
59	N	0.244003	0.547264	0.428859
60	H	0.211928	0.546609	0.433651
61	H	0.264167	0.549845	0.455507
62	C	0.256318	0.724958	0.636873
63	C	0.231947	0.698254	0.34358
64	N	0.257713	0.71887	0.382883
65	H	0.243787	0.708684	0.605623
66	C	0.228903	0.617049	0.678054
67	H	0.268036	0.636666	0.67948
68	C	0.232177	0.538996	0.679752
69	N	0.255834	0.539575	0.973521
70	C	0.299211	0.536949	0.97044
71	C	0.258918	0.541592	0.720267
72	N	0.244003	0.547264	0.762192
73	H	0.211928	0.546609	0.766988
74	H	0.264167	0.549845	0.788843
75	C	0.256318	0.724958	0.970206
76	C	0.231947	0.698254	0.676913
77	N	0.257713	0.71887	0.716215
78	H	0.243787	0.708684	0.938959
79	C	0.460436	0.644431	0.01069
80	C	0.406627	0.616683	0.011451
81	C	0.379063	0.562917	0.009545
82	C	0.406406	0.536419	0.007546
83	C	0.460477	0.563229	0.007525
84	C	0.487132	0.617281	0.008697
85	H	0.386796	0.497372	0.006642
86	H	0.526196	0.637013	0.008629
87	H	0.386992	0.636182	0.012922
88	C	0.379303	0.820733	0.010814
89	C	0.407061	0.794681	0.011629
90	C	0.46083	0.820885	0.00963
91	C	0.487304	0.874712	0.007376
92	C	0.460493	0.901968	0.007437
93	C	0.406442	0.874571	0.008714
94	H	0.52635	0.89415	0.00636
95	H	0.386712	0.893902	0.008639
96	H	0.387568	0.75555	0.013089
97	C	0.825357	0.455603	0.010061
98	C	0.799257	0.401791	0.010083
99	C	0.82551	0.374246	0.008785
100	C	0.879388	0.4016	0.007902
101	C	0.906661	0.455664	0.008588
102	C	0.87925	0.482306	0.009487
103	H	0.898833	0.381983	0.007427
104	H	0.898584	0.521365	0.010115
105	H	0.760099	0.382155	0.010873
106	C	0.568008	0.374574	0.010064
107	C	0.621821	0.402241	0.010122
108	C	0.649404	0.456033	0.008772
109	C	0.622092	0.482604	0.007946
110	C	0.56803	0.455858	0.008605
111	C	0.541346	0.401802	0.009492
112	H	0.641743	0.521666	0.007505
113	H	0.502288	0.382109	0.010121
114	H	0.641431	0.382696	0.010967
115	C	0.649163	0.198209	0.010033
116	C	0.621431	0.224288	0.010061
117	C	0.567636	0.198018	0.008792
118	C	0.541124	0.144136	0.008048
119	C	0.567939	0.116888	0.008585
120	C	0.621997	0.144319	0.009349
121	H	0.502061	0.124681	0.007644
122	H	0.64174	0.125002	0.009888
123	H	0.640938	0.263447	0.010846
124	C	0.989691	0.497368	0.048936
125	C	0.960718	0.482749	0.341936
126	N	0.986752	0.495637	0.302018
127	H	0.972551	0.488871	0.080125
128	C	0.487609	0.53624	0.339416
129	N	0.500447	0.523042	0.046093
130	C	0.526282	0.497143	0.048939
131	C	0.540978	0.482859	0.341946
132	N	0.528134	0.496041	0.302022
133	C	0.502169	0.521967	0.298567
134	H	0.534722	0.488451	0.08013
135	N	0.491864	0.532512	0.256497
136	H	0.473512	0.550844	0.251937
137	H	0.502754	0.521777	0.229644
138	C	0.48749	0.956089	0.339333
139	N	0.500638	0.982103	0.04602
140	C	0.526578	0.033836	0.048887
141	C	0.540975	0.062834	0.341905
142	N	0.527822	0.036827	0.30197
143	C	0.501855	0.984939	0.298495
144	H	0.535215	0.050952	0.080085
145	N	0.491333	0.964102	0.25642
146	H	0.472949	0.927422	0.251851
147	H	0.502112	0.985739	0.229573
148	C	0.325443	0.538539	0.010613
149	N	0.304344	0.542892	0.049892
150	H	0.315837	0.54155	0.272575
151	C	0.484649	0.69806	0.012872
152	N	0.484925	0.721458	0.306612
153	C	0.487542	0.76747	0.303648
154	C	0.485244	0.791658	0.010484
155	N	0.480198	0.765934	0.049762
156	C	0.481426	0.721775	0.053458
157	H	0.483745	0.780069	0.272448
158	N	0.475254	0.700941	0.095338
159	H	0.476134	0.669644	0.100163
160	H	0.472506	0.718447	0.12197
161	C	0.32567	0.791311	0.012925
162	N	0.302329	0.768339	0.306607
163	C	0.301865	0.764234	0.053423
164	N	0.322657	0.778643	0.095342
165	H	0.353821	0.810905	0.100295
166	H	0.304946	0.758394	0.121914
167	C	0.795979	0.479863	0.012204
168	N	0.772363	0.478891	0.30587
169	C	0.729042	0.48159	0.302727
170	C	0.703042	0.480404	0.009588
171	N	0.724118	0.476363	0.049022
172	C	0.769554	0.477656	0.052797
173	H	0.712138	0.476569	0.271618
174	N	0.7845	0.472105	0.094751
175	H	0.816509	0.472631	0.099551
176	H	0.764394	0.469681	0.121397
177	C	0.543715	0.320956	0.012292
178	N	0.54489	0.298348	0.305991
179	C	0.54234	0.252403	0.302827
180	C	0.543247	0.227231	0.009565
181	N	0.547142	0.25244	0.048936
182	C	0.545861	0.296579	0.052787
183	H	0.547337	0.240647	0.271645
184	N	0.551278	0.31696	0.094775
185	H	0.550765	0.348446	0.09961
186	H	0.553667	0.29923	0.121399
187	C	0.702809	0.22766	0.012042
188	N	0.725645	0.251015	0.3057
189	C	0.771577	0.294448	0.302631
190	C	0.796296	0.320604	0.009434
191	N	0.770982	0.299708	0.04885
192	C	0.726811	0.254305	0.052641
193	H	0.783854	0.311045	0.271456
194	N	0.706236	0.239487	0.094589
195	H	0.67487	0.207378	0.099431
196	H	0.723906	0.25964	0.121216
197	C	0.460436	0.644431	0.344025
198	C	0.406627	0.616683	0.344785
199	C	0.379063	0.562917	0.342877
200	C	0.406406	0.536419	0.340876
201	C	0.460477	0.563229	0.340859
202	C	0.487132	0.617281	0.342028
203	H	0.386796	0.497372	0.339973
204	H	0.526196	0.637013	0.341963
205	H	0.386992	0.636182	0.346256
206	C	0.379303	0.820733	0.344147
207	C	0.407061	0.794681	0.344962
208	C	0.46083	0.820885	0.342962
209	C	0.487304	0.874712	0.34071
210	C	0.460493	0.901968	0.340771
211	C	0.406442	0.874571	0.342048
212	H	0.52635	0.89415	0.339691
213	H	0.386712	0.893902	0.341973
214	H	0.387568	0.75555	0.346423
215	C	0.825357	0.455603	0.343396
216	C	0.799257	0.401791	0.343417
217	C	0.82551	0.374246	0.342119
218	C	0.879388	0.4016	0.341236
219	C	0.906661	0.455664	0.341922
220	C	0.87925	0.482306	0.342819
221	H	0.898833	0.381983	0.340761
222	H	0.898584	0.521365	0.343447
223	H	0.760099	0.382155	0.344205
224	C	0.568008	0.374574	0.343396
225	C	0.621821	0.402241	0.343458
226	C	0.649404	0.456033	0.342106
227	C	0.622092	0.482604	0.34128
228	C	0.56803	0.455858	0.341936
229	C	0.541346	0.401802	0.342826
230	H	0.641743	0.521666	0.340836
231	H	0.502288	0.382109	0.343454
232	H	0.641431	0.382696	0.3443
233	C	0.649163	0.198209	0.343366
234	C	0.621431	0.224288	0.343393
235	C	0.567636	0.198018	0.342126
236	C	0.541124	0.144136	0.341382
237	C	0.567939	0.116888	0.341919
238	C	0.621997	0.144319	0.342683
239	H	0.502061	0.124681	0.340978
240	H	0.64174	0.125002	0.34322
241	H	0.640938	0.263447	0.344181
242	C	0.989691	0.497368	0.382271
243	C	0.960718	0.482749	0.675272
244	N	0.986752	0.495637	0.635351
245	H	0.972551	0.488871	0.413457
246	C	0.487609	0.53624	0.672749
247	N	0.500447	0.523042	0.379428
248	C	0.526282	0.497143	0.382275
249	C	0.540978	0.482859	0.675279
250	N	0.528134	0.496041	0.635355
251	C	0.502169	0.521967	0.631901
252	H	0.534722	0.488451	0.413463
253	N	0.491864	0.532512	0.58983
254	H	0.473512	0.550844	0.585272
255	H	0.502754	0.521777	0.562978
256	C	0.48749	0.956089	0.672667
257	N	0.500638	0.982103	0.379354
258	C	0.526578	0.033836	0.38222
259	C	0.540975	0.062834	0.675238
260	N	0.527822	0.036827	0.635304
261	C	0.501855	0.984939	0.631829
262	H	0.535215	0.050952	0.413419
263	N	0.491333	0.964102	0.589752
264	H	0.472949	0.927422	0.585184
265	H	0.502112	0.985739	0.562907
266	C	0.325443	0.538539	0.343947
267	N	0.304344	0.542892	0.383226
268	H	0.315837	0.54155	0.605908
269	C	0.484649	0.69806	0.346205
270	N	0.484925	0.721458	0.639947
271	C	0.487542	0.76747	0.636982
272	C	0.485244	0.791658	0.343818
273	N	0.480198	0.765934	0.383097
274	C	0.481426	0.721775	0.386792
275	H	0.483745	0.780069	0.605783
276	N	0.475254	0.700941	0.428672
277	H	0.476134	0.669644	0.433495
278	H	0.472506	0.718447	0.455303
279	C	0.32567	0.791311	0.34626
280	N	0.302329	0.768339	0.63994
281	C	0.301865	0.764234	0.386758
282	N	0.322657	0.778643	0.428676
283	H	0.353821	0.810905	0.433628
284	H	0.304946	0.758394	0.455249
285	C	0.795979	0.479863	0.345539
286	N	0.772363	0.478891	0.639203
287	C	0.729042	0.48159	0.636061
288	C	0.703042	0.480404	0.342921
289	N	0.724118	0.476363	0.382356
290	C	0.769554	0.477656	0.386129
291	H	0.712138	0.476569	0.604951
292	N	0.7845	0.472105	0.428085
293	H	0.816509	0.472631	0.432884
294	H	0.764394	0.469681	0.454729
295	C	0.543715	0.320956	0.345624
296	N	0.54489	0.298348	0.639325
297	C	0.54234	0.252403	0.63616
298	C	0.543247	0.227231	0.342897
299	N	0.547142	0.25244	0.382268
300	C	0.545861	0.296579	0.386123
301	H	0.547337	0.240647	0.604978
302	N	0.551278	0.31696	0.428109
303	H	0.550765	0.348446	0.432945
304	H	0.553667	0.29923	0.454733
305	C	0.702809	0.22766	0.345376
306	N	0.725645	0.251015	0.639033
307	C	0.771577	0.294448	0.635966
308	C	0.796296	0.320604	0.342768
309	N	0.770982	0.299708	0.382183
310	C	0.726811	0.254305	0.385977
311	H	0.783854	0.311045	0.604791
312	N	0.706236	0.239487	0.427922
313	H	0.67487	0.207378	0.432765
314	H	0.723906	0.25964	0.454549
315	C	0.460436	0.644431	0.677358
316	C	0.406627	0.616683	0.678118
317	C	0.379063	0.562917	0.676213
318	C	0.406406	0.536419	0.674209
319	C	0.460477	0.563229	0.674192
320	C	0.487132	0.617281	0.675364
321	H	0.386796	0.497372	0.673309
322	H	0.526196	0.637013	0.675296
323	H	0.386992	0.636182	0.679589
324	C	0.379303	0.820733	0.67748
325	C	0.407061	0.794681	0.678298
326	C	0.46083	0.820885	0.676298
327	C	0.487304	0.874712	0.674043
328	C	0.460493	0.901968	0.674104
329	C	0.406442	0.874571	0.675381
330	H	0.52635	0.89415	0.673027
331	H	0.386712	0.893902	0.675306
332	H	0.387568	0.75555	0.679755
333	C	0.825357	0.455603	0.676729
334	C	0.799257	0.401791	0.67675
335	C	0.82551	0.374246	0.675452
336	C	0.879388	0.4016	0.674569
337	C	0.906661	0.455664	0.675255
338	C	0.87925	0.482306	0.676155
339	H	0.898833	0.381983	0.674094
340	H	0.898584	0.521365	0.676784
341	H	0.760099	0.382155	0.677541
342	C	0.568008	0.374574	0.676733
343	C	0.621821	0.402241	0.67679
344	C	0.649404	0.456033	0.675439
345	C	0.622092	0.482604	0.674613
346	C	0.56803	0.455858	0.675272
347	C	0.541346	0.401802	0.676159
348	H	0.641743	0.521666	0.674172
349	H	0.502288	0.382109	0.676787
350	H	0.641431	0.382696	0.677636
351	C	0.649163	0.198209	0.676702
352	C	0.621431	0.224288	0.676729
353	C	0.567636	0.198018	0.675459
354	C	0.541124	0.144136	0.674715
355	C	0.567939	0.116888	0.675252
356	C	0.621997	0.144319	0.676016
357	H	0.502061	0.124681	0.674311
358	H	0.64174	0.125002	0.676556
359	H	0.640938	0.263447	0.677514
360	C	0.989691	0.497368	0.715604
361	C	0.960718	0.482749	0.008605
362	N	0.986752	0.495637	0.968684
363	H	0.972551	0.488871	0.746793
364	C	0.487609	0.53624	0.006085
365	N	0.500447	0.523042	0.712761
366	C	0.526282	0.497143	0.715608
367	C	0.540978	0.482859	0.008612
368	N	0.528134	0.496041	0.968691
369	C	0.502169	0.521967	0.965234
370	H	0.534722	0.488451	0.746796
371	N	0.491864	0.532512	0.923163
372	H	0.473512	0.550844	0.918605
373	H	0.502754	0.521777	0.896311
374	C	0.48749	0.956089	0.006
375	N	0.500638	0.982103	0.712687
376	C	0.526578	0.033836	0.715553
377	C	0.540975	0.062834	0.008571
378	N	0.527822	0.036827	0.968637
379	C	0.501855	0.984939	0.965162
380	H	0.535215	0.050952	0.746752
381	N	0.491333	0.964102	0.923088
382	H	0.472949	0.927422	0.918517
383	H	0.502112	0.985739	0.89624
384	C	0.325443	0.538539	0.67728
385	N	0.304344	0.542892	0.716559
386	H	0.315837	0.54155	0.939241
387	C	0.484649	0.69806	0.679538
388	N	0.484925	0.721458	0.97328
389	C	0.487542	0.76747	0.970315
390	C	0.485244	0.791658	0.67715
391	N	0.480198	0.765934	0.716429
392	C	0.481426	0.721775	0.720125
393	H	0.483745	0.780069	0.939116
394	N	0.475254	0.700941	0.762005
395	H	0.476134	0.669644	0.766832
396	H	0.472506	0.718447	0.788636
397	C	0.32567	0.791311	0.679592
398	N	0.302329	0.768339	0.973276
399	C	0.301865	0.764234	0.720091
400	N	0.322657	0.778643	0.762009
401	H	0.353821	0.810905	0.766961
402	H	0.304946	0.758394	0.788582
403	C	0.795979	0.479863	0.678872
404	N	0.772363	0.478891	0.972536
405	C	0.729042	0.48159	0.969394
406	C	0.703042	0.480404	0.676254
407	N	0.724118	0.476363	0.715689
408	C	0.769554	0.477656	0.719466
409	H	0.712138	0.476569	0.938287
410	N	0.7845	0.472105	0.761418
411	H	0.816509	0.472631	0.76622
412	H	0.764394	0.469681	0.788066
413	C	0.543715	0.320956	0.678961
414	N	0.54489	0.298348	0.972658
415	C	0.54234	0.252403	0.969496
416	C	0.543247	0.227231	0.676233
417	N	0.547142	0.25244	0.715604
418	C	0.545861	0.296579	0.719456
419	H	0.547337	0.240647	0.938314
420	N	0.551278	0.31696	0.761441
421	H	0.550765	0.348446	0.766278
422	H	0.553667	0.29923	0.788066
423	C	0.702809	0.22766	0.678709
424	N	0.725645	0.251015	0.972366
425	C	0.771577	0.294448	0.969299
426	C	0.796296	0.320604	0.676101
427	N	0.770982	0.299708	0.715516
428	C	0.726811	0.254305	0.71931
429	H	0.783854	0.311045	0.938124
430	N	0.706236	0.239487	0.761258
431	H	0.67487	0.207378	0.766098
432	H	0.723906	0.25964	0.787882
