data_C162H90N36_2018-02-15_10:42:23
#******************************************
#
# CIF file created by Zeo++
# Zeo++ is an open source package to
# analyze microporous materials
#
#*******************************************

_cell_length_a		29.3246   
_cell_length_b		29.3246   
_cell_length_c		29.8886   
_cell_angle_alpha		90   
_cell_angle_beta		90   
_cell_angle_gamma		120   

_symmetry_space_group_name_H-M		'P1'
_symmetry_Int_Tables_number		1
_symmetry_cell_setting		Monoclinic

loop_
_symmetry_equiv_pos_as_xyz
'+x,+y,+z'

loop_
_atom_site_label
_atom_site_type_symbol
_atom_site_fract_x
_atom_site_fract_y
_atom_site_fract_z
1	N	0.030457	0.515695	0.296453
2	C	0.028555	0.514746	0.042677
3	N	0.030457	0.515695	0.629786
4	C	0.028555	0.514746	0.37601
5	N	0.030457	0.515695	0.963118
6	C	0.028555	0.514746	0.709342
7	H	0.046912	0.523924	0.073112
8	H	0.046912	0.523924	0.406446
9	H	0.046912	0.523924	0.739778
10	C	0.363326	0.722922	0.001805
11	N	0.388837	0.694885	0.001805
12	C	0.363325	0.641337	0.001805
13	N	0.30978	0.615829	0.001805
14	C	0.281742	0.641337	0.001805
15	N	0.309779	0.694885	0.001805
16	C	0.391448	0.613215	0.001744
17	C	0.447303	0.640073	0.001721
18	C	0.475097	0.612443	0.001785
19	C	0.447735	0.55693	0.001908
20	C	0.392222	0.529567	0.001785
21	C	0.364593	0.557363	0.001721
22	C	0.391449	0.779167	0.001744
23	C	0.447302	0.808164	0.001718
24	C	0.475098	0.86359	0.001781
25	C	0.447735	0.891741	0.001909
26	C	0.392223	0.86359	0.001785
27	C	0.364592	0.808164	0.001721
28	C	0.225497	0.613215	0.001744
29	C	0.1965	0.640073	0.001721
30	C	0.141075	0.612443	0.001785
31	C	0.112924	0.55693	0.001907
32	C	0.141075	0.529567	0.001785
33	C	0.1965	0.557363	0.001721
34	H	0.515414	0.883184	0.001888
35	H	0.46868	0.789287	0.001734
36	H	0.3715	0.883184	0.001888
37	H	0.324337	0.789287	0.001734
38	H	0.215377	0.680328	0.001734
39	H	0.121479	0.633163	0.001888
40	H	0.215375	0.535982	0.001734
41	H	0.121479	0.489249	0.001888
42	H	0.324336	0.535982	0.001734
43	H	0.3715	0.489249	0.001887
44	H	0.515414	0.633163	0.001887
45	H	0.468681	0.680328	0.001734
46	C	0.642271	0.280811	0.001912
47	N	0.616759	0.308846	0.001914
48	C	0.64227	0.362392	0.001912
49	N	0.695817	0.387904	0.001914
50	C	0.723853	0.362392	0.001913
51	N	0.695818	0.308846	0.001914
52	C	0.614148	0.390514	0.001989
53	C	0.558294	0.363657	0.002028
54	C	0.530501	0.391287	0.001994
55	C	0.557864	0.446802	0.001893
56	C	0.613377	0.474164	0.001996
57	C	0.641007	0.446368	0.002027
58	C	0.614149	0.224567	0.001988
59	C	0.558296	0.19557	0.002026
60	C	0.530502	0.140146	0.001994
61	C	0.557863	0.111996	0.001892
62	C	0.613375	0.140146	0.001994
63	C	0.641005	0.19557	0.002028
64	C	0.780097	0.390514	0.001989
65	C	0.809094	0.363657	0.002027
66	C	0.864515	0.391287	0.001994
67	C	0.892668	0.446802	0.001893
68	C	0.864518	0.474164	0.001999
69	C	0.809092	0.446368	0.002028
70	H	0.490184	0.12055	0.0019
71	H	0.536917	0.214447	0.002002
72	H	0.634097	0.12055	0.0019
73	H	0.68126	0.214447	0.002001
74	H	0.790218	0.323402	0.002002
75	H	0.884112	0.370565	0.001899
76	H	0.790215	0.467746	0.002001
77	H	0.884112	0.514478	0.001898
78	H	0.681262	0.467746	0.002
79	H	0.634097	0.514478	0.001899
80	H	0.490183	0.370566	0.001899
81	H	0.536915	0.323403	0.002001
82	C	0.515679	0.488986	0.294467
83	N	0.488967	0.515695	0.296454
84	C	0.47545	0.529213	0.002388
85	C	0.48992	0.514746	0.042678
86	N	0.516631	0.488033	0.04069
87	C	0.530147	0.474515	0.00142
88	H	0.524857	0.479807	0.264031
89	H	0.480742	0.523924	0.073113
90	C	0.515679	0.027627	0.294466
91	N	0.488969	0.974207	0.296454
92	C	0.475451	0.947171	0.002388
93	C	0.489919	0.976109	0.042678
94	N	0.516631	0.029532	0.04069
95	C	0.530148	0.056565	0.00142
96	H	0.524857	0.045983	0.26403
97	H	0.48074	0.957751	0.073113
98	C	0.977038	0.488986	0.294466
99	C	0.057492	0.529213	0.002387
100	N	0.975133	0.488033	0.04069
101	C	0.948097	0.474515	0.00142
102	H	0.958679	0.479807	0.26403
103	C	0.363326	0.722922	0.335138
104	N	0.388837	0.694885	0.335138
105	C	0.363325	0.641337	0.335138
106	N	0.30978	0.615829	0.335138
107	C	0.281742	0.641337	0.335138
108	N	0.309779	0.694885	0.335138
109	C	0.391448	0.613215	0.335078
110	C	0.447303	0.640073	0.335055
111	C	0.475097	0.612443	0.335118
112	C	0.447735	0.55693	0.335242
113	C	0.392222	0.529567	0.335118
114	C	0.364593	0.557363	0.335055
115	C	0.391449	0.779167	0.335078
116	C	0.447302	0.808164	0.335055
117	C	0.475098	0.86359	0.335118
118	C	0.447735	0.891741	0.335242
119	C	0.392223	0.86359	0.335118
120	C	0.364592	0.808164	0.335055
121	C	0.225497	0.613215	0.335078
122	C	0.1965	0.640073	0.335055
123	C	0.141075	0.612443	0.335118
124	C	0.112924	0.55693	0.335242
125	C	0.141075	0.529567	0.335118
126	C	0.1965	0.557363	0.335055
127	H	0.515414	0.883184	0.335222
128	H	0.46868	0.789287	0.335068
129	H	0.3715	0.883184	0.335222
130	H	0.324337	0.789287	0.335068
131	H	0.215377	0.680328	0.335068
132	H	0.121479	0.633163	0.335222
133	H	0.215375	0.535982	0.335071
134	H	0.121479	0.489249	0.335222
135	H	0.324336	0.535982	0.335068
136	H	0.3715	0.489249	0.335219
137	H	0.515414	0.633163	0.335219
138	H	0.468681	0.680328	0.335068
139	C	0.642271	0.280811	0.335245
140	N	0.616759	0.308846	0.335245
141	C	0.64227	0.362392	0.335245
142	N	0.695817	0.387904	0.335249
143	C	0.723853	0.362392	0.335245
144	N	0.695818	0.308846	0.335249
145	C	0.614148	0.390514	0.335322
146	C	0.558294	0.363657	0.335359
147	C	0.530501	0.391287	0.335326
148	C	0.557864	0.446802	0.335225
149	C	0.613377	0.474164	0.335329
150	C	0.641007	0.446368	0.335359
151	C	0.614149	0.224567	0.335322
152	C	0.558296	0.19557	0.335359
153	C	0.530502	0.140146	0.335326
154	C	0.557863	0.111996	0.335225
155	C	0.613375	0.140146	0.335326
156	C	0.641005	0.19557	0.335359
157	C	0.780097	0.390514	0.335322
158	C	0.809094	0.363657	0.335359
159	C	0.864515	0.391287	0.335326
160	C	0.892668	0.446802	0.335225
161	C	0.864518	0.474164	0.335332
162	C	0.809092	0.446368	0.335362
163	H	0.490184	0.12055	0.335232
164	H	0.536917	0.214447	0.335336
165	H	0.634097	0.12055	0.335232
166	H	0.68126	0.214447	0.335336
167	H	0.790218	0.323402	0.335336
168	H	0.884112	0.370565	0.335232
169	H	0.790215	0.467746	0.335332
170	H	0.884112	0.514478	0.335232
171	H	0.681262	0.467746	0.335332
172	H	0.634097	0.514478	0.335232
173	H	0.490183	0.370566	0.335232
174	H	0.536915	0.323403	0.335332
175	C	0.515679	0.488986	0.627799
176	N	0.488967	0.515695	0.629786
177	C	0.47545	0.529213	0.33572
178	C	0.48992	0.514746	0.37601
179	N	0.516631	0.488033	0.374023
180	C	0.530147	0.474515	0.334757
181	H	0.524857	0.479807	0.597362
182	H	0.480742	0.523924	0.406446
183	C	0.515679	0.027627	0.627799
184	N	0.488969	0.974207	0.629786
185	C	0.475451	0.947171	0.33572
186	C	0.489919	0.976109	0.37601
187	N	0.516631	0.029532	0.374023
188	C	0.530148	0.056565	0.334757
189	H	0.524857	0.045983	0.597362
190	H	0.48074	0.957751	0.406446
191	C	0.977038	0.488986	0.627799
192	C	0.057492	0.529213	0.33572
193	N	0.975133	0.488033	0.374023
194	C	0.948097	0.474515	0.334757
195	H	0.958679	0.479807	0.597362
196	C	0.363326	0.722922	0.66847
197	N	0.388837	0.694885	0.66847
198	C	0.363325	0.641337	0.66847
199	N	0.30978	0.615829	0.66847
200	C	0.281742	0.641337	0.66847
201	N	0.309779	0.694885	0.66847
202	C	0.391448	0.613215	0.668413
203	C	0.447303	0.640073	0.66839
204	C	0.475097	0.612443	0.668453
205	C	0.447735	0.55693	0.668574
206	C	0.392222	0.529567	0.668453
207	C	0.364593	0.557363	0.668386
208	C	0.391449	0.779167	0.668413
209	C	0.447302	0.808164	0.668386
210	C	0.475098	0.86359	0.66845
211	C	0.447735	0.891741	0.668574
212	C	0.392223	0.86359	0.668453
213	C	0.364592	0.808164	0.66839
214	C	0.225497	0.613215	0.668413
215	C	0.1965	0.640073	0.66839
216	C	0.141075	0.612443	0.66845
217	C	0.112924	0.55693	0.668574
218	C	0.141075	0.529567	0.66845
219	C	0.1965	0.557363	0.668386
220	H	0.515414	0.883184	0.668553
221	H	0.46868	0.789287	0.668403
222	H	0.3715	0.883184	0.668553
223	H	0.324337	0.789287	0.668403
224	H	0.215377	0.680328	0.668403
225	H	0.121479	0.633163	0.668553
226	H	0.215375	0.535982	0.668403
227	H	0.121479	0.489249	0.668553
228	H	0.324336	0.535982	0.668403
229	H	0.3715	0.489249	0.668553
230	H	0.515414	0.633163	0.668553
231	H	0.468681	0.680328	0.668403
232	C	0.642271	0.280811	0.668577
233	N	0.616759	0.308846	0.66858
234	C	0.64227	0.362392	0.668577
235	N	0.695817	0.387904	0.66858
236	C	0.723853	0.362392	0.66858
237	N	0.695818	0.308846	0.66858
238	C	0.614148	0.390514	0.668654
239	C	0.558294	0.363657	0.668694
240	C	0.530501	0.391287	0.668661
241	C	0.557864	0.446802	0.66856
242	C	0.613377	0.474164	0.668661
243	C	0.641007	0.446368	0.668694
244	C	0.614149	0.224567	0.668654
245	C	0.558296	0.19557	0.668691
246	C	0.530502	0.140146	0.668661
247	C	0.557863	0.111996	0.668557
248	C	0.613375	0.140146	0.668661
249	C	0.641005	0.19557	0.668694
250	C	0.780097	0.390514	0.668654
251	C	0.809094	0.363657	0.668694
252	C	0.864515	0.391287	0.668661
253	C	0.892668	0.446802	0.66856
254	C	0.864518	0.474164	0.668664
255	C	0.809092	0.446368	0.668694
256	H	0.490184	0.12055	0.668567
257	H	0.536917	0.214447	0.668667
258	H	0.634097	0.12055	0.668567
259	H	0.68126	0.214447	0.668667
260	H	0.790218	0.323402	0.668667
261	H	0.884112	0.370565	0.668563
262	H	0.790215	0.467746	0.668667
263	H	0.884112	0.514478	0.668563
264	H	0.681262	0.467746	0.668667
265	H	0.634097	0.514478	0.668563
266	H	0.490183	0.370566	0.668563
267	H	0.536915	0.323403	0.668667
268	C	0.515679	0.488986	0.961134
269	N	0.488967	0.515695	0.963121
270	C	0.47545	0.529213	0.669052
271	C	0.48992	0.514746	0.709345
272	N	0.516631	0.488033	0.707358
273	C	0.530147	0.474515	0.668088
274	H	0.524857	0.479807	0.930697
275	H	0.480742	0.523924	0.739778
276	C	0.515679	0.027627	0.96113
277	N	0.488969	0.974207	0.963121
278	C	0.475451	0.947171	0.669052
279	C	0.489919	0.976109	0.709345
280	N	0.516631	0.029532	0.707358
281	C	0.530148	0.056565	0.668088
282	H	0.524857	0.045983	0.930697
283	H	0.48074	0.957751	0.739778
284	C	0.977038	0.488986	0.96113
285	C	0.057492	0.529213	0.669052
286	N	0.975133	0.488033	0.707354
287	C	0.948097	0.474515	0.668088
288	H	0.958679	0.479807	0.930697
