data_C216H108N24O18_2018-02-15_10:40:51
#******************************************
#
# CIF file created by Zeo++
# Zeo++ is an open source package to
# analyze microporous materials
#
#*******************************************

_cell_length_a		32.2177   
_cell_length_b		32.2178   
_cell_length_c		29.086   
_cell_angle_alpha		90   
_cell_angle_beta		90   
_cell_angle_gamma		120   

_symmetry_space_group_name_H-M		'P1'
_symmetry_Int_Tables_number		1
_symmetry_cell_setting		Monoclinic

loop_
_symmetry_equiv_pos_as_xyz
'+x,+y,+z'

loop_
_atom_site_label
_atom_site_type_symbol
_atom_site_fract_x
_atom_site_fract_y
_atom_site_fract_z
1	C	0.306035	0.655977	0.01383
2	C	0.27942	0.659399	0.977032
3	C	0.228927	0.634408	0.97817
4	C	0.203037	0.604535	0.01577
5	C	0.230474	0.601026	0.052209
6	C	0.280934	0.626552	0.051508
7	H	0.296818	0.680785	0.949476
8	H	0.211312	0.639296	0.951364
9	H	0.299404	0.623308	0.078541
10	H	0.214039	0.579153	0.079719
11	C	0.049341	0.528567	0.018695
12	C	0.123055	0.561268	0.310164
13	C	0.151336	0.579153	0.0171
14	C	0.125724	0.570519	0.058986
15	N	0.074453	0.537413	0.312209
16	C	0.075013	0.544857	0.060689
17	C	0.049346	0.534936	0.102508
18	H	0.144305	0.583701	0.088957
19	H	0.138485	0.564981	0.278661
20	O	0.072599	0.54981	0.143248
21	C	0.306035	0.655977	0.347163
22	C	0.27942	0.659399	0.310365
23	C	0.228927	0.634408	0.311502
24	C	0.203037	0.604535	0.349106
25	C	0.230474	0.601026	0.385542
26	C	0.280934	0.626552	0.384841
27	H	0.296818	0.680785	0.282809
28	H	0.211312	0.639296	0.284697
29	H	0.299404	0.623308	0.411875
30	H	0.214039	0.579153	0.413054
31	C	0.049341	0.528567	0.352028
32	C	0.123055	0.561268	0.643498
33	C	0.151336	0.579153	0.350433
34	C	0.125724	0.570519	0.392319
35	N	0.074453	0.537413	0.645543
36	C	0.075013	0.544857	0.394024
37	C	0.049346	0.534936	0.435841
38	H	0.144305	0.583701	0.422292
39	H	0.138485	0.564981	0.611995
40	O	0.072599	0.54981	0.476583
41	C	0.306035	0.655977	0.680498
42	C	0.27942	0.659399	0.643701
43	C	0.228927	0.634408	0.644835
44	C	0.203037	0.604535	0.682437
45	C	0.230474	0.601026	0.718877
46	C	0.280934	0.626552	0.718176
47	H	0.296818	0.680785	0.616144
48	H	0.211312	0.639296	0.618032
49	H	0.299404	0.623308	0.74521
50	H	0.214039	0.579153	0.746385
51	C	0.049341	0.528567	0.685363
52	C	0.123055	0.561268	0.976833
53	C	0.151336	0.579153	0.683768
54	C	0.125724	0.570519	0.725654
55	N	0.074453	0.537413	0.978875
56	C	0.075013	0.544857	0.727356
57	C	0.049346	0.534936	0.769177
58	H	0.144305	0.583701	0.755624
59	H	0.138485	0.564981	0.94533
60	O	0.072599	0.54981	0.809914
61	N	0.357065	0.681921	0.013177
62	C	0.38287	0.65669	0.014122
63	C	0.382144	0.732983	0.013699
64	C	0.41381	0.662546	0.05092
65	C	0.43959	0.637859	0.051493
66	C	0.43471	0.605442	0.015973
67	C	0.403128	0.599775	0.979374
68	C	0.37809	0.625218	0.978187
69	C	0.414521	0.75962	0.978328
70	C	0.440056	0.810116	0.979521
71	C	0.433495	0.836168	0.015439
72	C	0.400015	0.808632	0.050261
73	C	0.375424	0.758179	0.049843
74	H	0.462754	0.644687	0.078182
75	H	0.418203	0.685423	0.077247
76	H	0.355665	0.620133	0.951233
77	H	0.397128	0.576207	0.953265
78	H	0.420375	0.74223	0.951921
79	H	0.464405	0.827573	0.953959
80	H	0.392366	0.824918	0.076396
81	H	0.351921	0.739786	0.07579
82	C	0.475563	0.566343	0.309955
83	C	0.460419	0.579389	0.017167
84	C	0.472173	0.565322	0.059181
85	N	0.499633	0.541803	0.31186
86	C	0.498125	0.54056	0.06069
87	H	0.461061	0.572608	0.089478
88	H	0.469638	0.575895	0.278234
89	O	0.499504	0.539255	0.143525
90	C	0.475011	0.916293	0.309544
91	C	0.459615	0.887986	0.016689
92	C	0.471348	0.91382	0.058719
93	N	0.499462	0.964907	0.311532
94	C	0.495926	0.964523	0.060268
95	H	0.462461	0.895459	0.089097
96	H	0.467244	0.900935	0.277716
97	O	0.492035	0.967039	0.142918
98	N	0.357065	0.681921	0.34651
99	C	0.38287	0.65669	0.347455
100	C	0.382144	0.732983	0.347032
101	C	0.41381	0.662546	0.384253
102	C	0.43959	0.637859	0.384827
103	C	0.43471	0.605442	0.349305
104	C	0.403128	0.599775	0.312705
105	C	0.37809	0.625218	0.311521
106	C	0.414521	0.75962	0.311662
107	C	0.440056	0.810116	0.312854
108	C	0.433495	0.836168	0.348772
109	C	0.400015	0.808632	0.383593
110	C	0.375424	0.758179	0.383177
111	H	0.462754	0.644687	0.411517
112	H	0.418203	0.685423	0.410582
113	H	0.355665	0.620133	0.284564
114	H	0.397128	0.576207	0.286598
115	H	0.420375	0.74223	0.285253
116	H	0.464405	0.827573	0.287292
117	H	0.392366	0.824918	0.409729
118	H	0.351921	0.739786	0.409124
119	C	0.475563	0.566343	0.643288
120	C	0.460419	0.579389	0.350501
121	C	0.472173	0.565322	0.392515
122	N	0.499633	0.541803	0.645193
123	C	0.498125	0.54056	0.394024
124	H	0.461061	0.572608	0.422811
125	H	0.469638	0.575895	0.611568
126	O	0.499504	0.539255	0.476858
127	C	0.475011	0.916293	0.642879
128	C	0.459615	0.887986	0.350024
129	C	0.471348	0.91382	0.392054
130	N	0.499462	0.964907	0.644866
131	C	0.495926	0.964523	0.393601
132	H	0.462461	0.895459	0.422429
133	H	0.467244	0.900935	0.611049
134	O	0.492035	0.967039	0.476252
135	N	0.357065	0.681921	0.679842
136	C	0.38287	0.65669	0.680787
137	C	0.382144	0.732983	0.680368
138	C	0.41381	0.662546	0.717588
139	C	0.43959	0.637859	0.718162
140	C	0.43471	0.605442	0.68264
141	C	0.403128	0.599775	0.646038
142	C	0.37809	0.625218	0.644856
143	C	0.414521	0.75962	0.644997
144	C	0.440056	0.810116	0.646186
145	C	0.433495	0.836168	0.682104
146	C	0.400015	0.808632	0.716928
147	C	0.375424	0.758179	0.716512
148	H	0.462754	0.644687	0.744849
149	H	0.418203	0.685423	0.743914
150	H	0.355665	0.620133	0.617898
151	H	0.397128	0.576207	0.619933
152	H	0.420375	0.74223	0.618585
153	H	0.464405	0.827573	0.620628
154	H	0.392366	0.824918	0.743064
155	H	0.351921	0.739786	0.742456
156	C	0.475563	0.566343	0.976623
157	C	0.460419	0.579389	0.683833
158	C	0.472173	0.565322	0.72585
159	N	0.499633	0.541803	0.978528
160	C	0.498125	0.54056	0.727356
161	H	0.461061	0.572608	0.756146
162	H	0.469638	0.575895	0.944903
163	O	0.499504	0.539255	0.810193
164	C	0.475011	0.916293	0.976211
165	C	0.459615	0.887986	0.683355
166	C	0.471348	0.91382	0.725386
167	N	0.499462	0.964907	0.978198
168	C	0.495926	0.964523	0.726936
169	H	0.462461	0.895459	0.755765
170	H	0.467244	0.900935	0.944384
171	O	0.492035	0.967039	0.809584
172	C	0.511386	0.528291	0.018449
173	C	0.511227	0.527861	0.102556
174	C	0.510671	0.990124	0.018128
175	C	0.506023	0.990235	0.102076
176	C	0.511386	0.528291	0.351784
177	C	0.511227	0.527861	0.435889
178	C	0.510671	0.990124	0.351461
179	C	0.506023	0.990235	0.435408
180	C	0.511386	0.528291	0.685116
181	C	0.511227	0.527861	0.769225
182	C	0.510671	0.990124	0.684796
183	C	0.506023	0.990235	0.768743
184	N	0.690403	0.348627	0.013225
185	C	0.664425	0.373697	0.013679
186	C	0.665188	0.297601	0.013943
187	C	0.741459	0.374457	0.014177
188	C	0.766519	0.406352	0.050377
189	C	0.816981	0.432218	0.050952
190	C	0.844643	0.426333	0.016215
191	C	0.818705	0.393657	0.980305
192	C	0.768227	0.368716	0.978944
193	C	0.633573	0.368049	0.050496
194	C	0.607922	0.392854	0.051029
195	C	0.612898	0.425254	0.015466
196	C	0.644312	0.430659	0.978789
197	C	0.669244	0.405094	0.977658
198	C	0.669601	0.272427	0.051503
199	C	0.644726	0.221963	0.052061
200	C	0.613739	0.194593	0.015614
201	C	0.609635	0.220564	0.978156
202	C	0.6351	0.271053	0.977142
203	H	0.584895	0.386238	0.077796
204	H	0.629241	0.345331	0.076956
205	H	0.691692	0.410104	0.950745
206	H	0.650336	0.454199	0.952646
207	H	0.748022	0.411502	0.076193
208	H	0.833183	0.456191	0.077073
209	H	0.691421	0.290845	0.078492
210	H	0.650281	0.205474	0.079454
211	H	0.587142	0.20301	0.951326
212	H	0.631121	0.288503	0.949624
213	H	0.750942	0.345525	0.952471
214	H	0.836231	0.386776	0.954805
215	C	0.587432	0.451539	0.016776
216	C	0.57204	0.464453	0.309653
217	N	0.548052	0.489071	0.311706
218	C	0.536659	0.50282	0.018365
219	C	0.550269	0.490767	0.060524
220	C	0.576124	0.465915	0.058855
221	H	0.587467	0.458754	0.089081
222	H	0.577698	0.454718	0.277911
223	C	0.537568	0.503726	0.102472
224	O	0.549656	0.492562	0.143367
225	C	0.587488	0.142884	0.016789
226	C	0.576963	0.114703	0.309766
227	N	0.552245	0.066091	0.311697
228	C	0.536143	0.040872	0.018148
229	C	0.545677	0.066452	0.060217
230	C	0.570688	0.117162	0.058636
231	H	0.57615	0.135659	0.088671
232	H	0.588528	0.130215	0.278272
233	C	0.53013	0.040709	0.102009
234	O	0.53867	0.063877	0.142812
235	C	0.896468	0.452163	0.017463
236	C	0.924735	0.464926	0.310293
237	N	0.973341	0.489096	0.312219
238	C	0.9986	0.503311	0.018773
239	C	0.973066	0.492706	0.060936
240	C	0.922351	0.466546	0.059457
241	H	0.904033	0.457241	0.089857
242	H	0.909356	0.457155	0.278475
243	C	0.99887	0.508583	0.102676
244	O	0.975751	0.499633	0.14354
245	N	0.690403	0.348627	0.346558
246	C	0.664425	0.373697	0.347012
247	C	0.665188	0.297601	0.347277
248	C	0.741459	0.374457	0.34751
249	C	0.766519	0.406352	0.38371
250	C	0.816981	0.432218	0.384287
251	C	0.844643	0.426333	0.349549
252	C	0.818705	0.393657	0.313637
253	C	0.768227	0.368716	0.312276
254	C	0.633573	0.368049	0.38383
255	C	0.607922	0.392854	0.384363
256	C	0.612898	0.425254	0.3488
257	C	0.644312	0.430659	0.312121
258	C	0.669244	0.405094	0.31099
259	C	0.669601	0.272427	0.384838
260	C	0.644726	0.221963	0.385394
261	C	0.613739	0.194593	0.348944
262	C	0.609635	0.220564	0.311488
263	C	0.6351	0.271053	0.310475
264	H	0.584895	0.386238	0.411128
265	H	0.629241	0.345331	0.41029
266	H	0.691692	0.410104	0.284075
267	H	0.650336	0.454199	0.285979
268	H	0.748022	0.411502	0.409526
269	H	0.833183	0.456191	0.410406
270	H	0.691421	0.290845	0.411826
271	H	0.650281	0.205474	0.412789
272	H	0.587142	0.20301	0.284659
273	H	0.631121	0.288503	0.282958
274	H	0.750942	0.345525	0.285803
275	H	0.836231	0.386776	0.288139
276	C	0.587432	0.451539	0.35011
277	C	0.57204	0.464453	0.642985
278	N	0.548052	0.489071	0.645041
279	C	0.536659	0.50282	0.351698
280	C	0.550269	0.490767	0.393859
281	C	0.576124	0.465915	0.392188
282	H	0.587467	0.458754	0.422416
283	H	0.577698	0.454718	0.611245
284	C	0.537568	0.503726	0.435807
285	O	0.549656	0.492562	0.476703
286	C	0.587488	0.142884	0.350123
287	C	0.576963	0.114703	0.643099
288	N	0.552245	0.066091	0.645031
289	C	0.536143	0.040872	0.351481
290	C	0.545677	0.066452	0.39355
291	C	0.570688	0.117162	0.391968
292	H	0.57615	0.135659	0.422003
293	H	0.588528	0.130215	0.611606
294	C	0.53013	0.040709	0.435343
295	O	0.53867	0.063877	0.476146
296	C	0.896468	0.452163	0.350797
297	C	0.924735	0.464926	0.643625
298	N	0.973341	0.489096	0.645554
299	C	0.9986	0.503311	0.352107
300	C	0.973066	0.492706	0.394268
301	C	0.922351	0.466546	0.39279
302	H	0.904033	0.457241	0.423193
303	H	0.909356	0.457155	0.611809
304	C	0.99887	0.508583	0.43601
305	O	0.975751	0.499633	0.476875
306	N	0.690403	0.348627	0.679893
307	C	0.664425	0.373697	0.680347
308	C	0.665188	0.297601	0.680612
309	C	0.741459	0.374457	0.680845
310	C	0.766519	0.406352	0.717045
311	C	0.816981	0.432218	0.717619
312	C	0.844643	0.426333	0.682881
313	C	0.818705	0.393657	0.64697
314	C	0.768227	0.368716	0.645609
315	C	0.633573	0.368049	0.717165
316	C	0.607922	0.392854	0.717698
317	C	0.612898	0.425254	0.682135
318	C	0.644312	0.430659	0.645454
319	C	0.669244	0.405094	0.644323
320	C	0.669601	0.272427	0.718173
321	C	0.644726	0.221963	0.71873
322	C	0.613739	0.194593	0.682279
323	C	0.609635	0.220564	0.644821
324	C	0.6351	0.271053	0.643811
325	H	0.584895	0.386238	0.744464
326	H	0.629241	0.345331	0.743625
327	H	0.691692	0.410104	0.61741
328	H	0.650336	0.454199	0.619314
329	H	0.748022	0.411502	0.742861
330	H	0.833183	0.456191	0.743742
331	H	0.691421	0.290845	0.745158
332	H	0.650281	0.205474	0.746121
333	H	0.587142	0.20301	0.617994
334	H	0.631121	0.288503	0.616292
335	H	0.750942	0.345525	0.619135
336	H	0.836231	0.386776	0.621473
337	C	0.587432	0.451539	0.683445
338	C	0.57204	0.464453	0.976321
339	N	0.548052	0.489071	0.978373
340	C	0.536659	0.50282	0.685033
341	C	0.550269	0.490767	0.727191
342	C	0.576124	0.465915	0.725523
343	H	0.587467	0.458754	0.755747
344	H	0.577698	0.454718	0.944577
345	C	0.537568	0.503726	0.769139
346	O	0.549656	0.492562	0.810035
347	C	0.587488	0.142884	0.683458
348	C	0.576963	0.114703	0.976434
349	N	0.552245	0.066091	0.978366
350	C	0.536143	0.040872	0.684816
351	C	0.545677	0.066452	0.726885
352	C	0.570688	0.117162	0.725303
353	H	0.57615	0.135659	0.755338
354	H	0.588528	0.130215	0.944938
355	C	0.53013	0.040709	0.768678
356	O	0.53867	0.063877	0.809481
357	C	0.896468	0.452163	0.684129
358	C	0.924735	0.464926	0.97696
359	N	0.973341	0.489096	0.978885
360	C	0.9986	0.503311	0.685442
361	C	0.973066	0.492706	0.727603
362	C	0.922351	0.466546	0.726125
363	H	0.904033	0.457241	0.756524
364	H	0.909356	0.457155	0.945144
365	C	0.99887	0.508583	0.769342
366	O	0.975751	0.499633	0.810206
