data_C171H108N36_2018-02-15_10:42:23
#******************************************
#
# CIF file created by Zeo++
# Zeo++ is an open source package to
# analyze microporous materials
#
#*******************************************

_cell_length_a		29.3357   
_cell_length_b		29.3357   
_cell_length_c		29.8876   
_cell_angle_alpha		90   
_cell_angle_beta		90   
_cell_angle_gamma		120   

_symmetry_space_group_name_H-M		'P1'
_symmetry_Int_Tables_number		1
_symmetry_cell_setting		Monoclinic

loop_
_symmetry_equiv_pos_as_xyz
'+x,+y,+z'

loop_
_atom_site_label
_atom_site_type_symbol
_atom_site_fract_x
_atom_site_fract_y
_atom_site_fract_z
1	C	0.028087	0.514515	0.043808
2	H	0.022687	0.511815	0.115017
3	C	0.028087	0.514515	0.377143
4	H	0.022687	0.511815	0.448353
5	C	0.028087	0.514515	0.710474
6	H	0.022687	0.511815	0.781684
7	N	0.030854	0.515897	0.297319
8	N	0.030854	0.515897	0.630652
9	N	0.030854	0.515897	0.963987
10	C	0.057499	0.529221	0.003449
11	C	0.052491	0.526718	0.088699
12	C	0.057499	0.529221	0.336781
13	C	0.052491	0.526718	0.422034
14	C	0.057499	0.529221	0.670117
15	C	0.052491	0.526718	0.755366
16	C	0.363338	0.722915	0.000424
17	N	0.388835	0.694886	0.00045
18	C	0.363337	0.641362	0.000427
19	N	0.309812	0.615864	0.00045
20	C	0.281785	0.641362	0.000424
21	N	0.309814	0.69489	0.000447
22	C	0.391452	0.613246	0.000685
23	C	0.447282	0.640091	0.000929
24	C	0.475059	0.612475	0.001565
25	C	0.447721	0.556983	0.002007
26	C	0.392226	0.529642	0.001565
27	C	0.364607	0.557416	0.000926
28	C	0.391454	0.779148	0.000681
29	C	0.447283	0.808129	0.000922
30	C	0.475061	0.863527	0.001558
31	C	0.44772	0.891678	0.002003
32	C	0.392228	0.863527	0.001561
33	C	0.364608	0.808129	0.000926
34	C	0.225554	0.613246	0.000681
35	C	0.196569	0.640091	0.000926
36	C	0.141175	0.612475	0.001555
37	C	0.113022	0.556983	0.002
38	C	0.141175	0.529642	0.001558
39	C	0.196568	0.557416	0.000922
40	H	0.515357	0.883113	0.001983
41	H	0.468651	0.78926	0.000818
42	H	0.371518	0.883113	0.001982
43	H	0.324369	0.78926	0.000815
44	H	0.21544	0.68033	0.000815
45	H	0.121588	0.633183	0.001978
46	H	0.215441	0.53605	0.000818
47	H	0.121587	0.489344	0.001983
48	H	0.324369	0.53605	0.000818
49	H	0.371516	0.489344	0.001983
50	H	0.515355	0.633183	0.001981
51	H	0.468651	0.68033	0.000815
52	C	0.642304	0.280847	0.002151
53	N	0.616805	0.308872	0.002137
54	C	0.642302	0.362396	0.00215
55	N	0.695828	0.387895	0.002137
56	C	0.723855	0.362397	0.00215
57	N	0.695828	0.308872	0.002138
58	C	0.614189	0.390511	0.002001
59	C	0.558358	0.363666	0.001895
60	C	0.530577	0.391285	0.001618
61	C	0.557922	0.446778	0.00135
62	C	0.613416	0.474123	0.001622
63	C	0.641034	0.446341	0.001896
64	C	0.614189	0.224617	0.002002
65	C	0.558357	0.195631	0.001897
66	C	0.530578	0.14023	0.001622
67	C	0.557922	0.112083	0.001354
68	C	0.613416	0.140231	0.001622
69	C	0.641035	0.195631	0.001896
70	C	0.780083	0.390511	0.002002
71	C	0.809069	0.363666	0.001896
72	C	0.86447	0.391286	0.001622
73	C	0.892615	0.446778	0.001357
74	C	0.864468	0.474123	0.001625
75	C	0.809068	0.446341	0.001897
76	H	0.490276	0.120643	0.001561
77	H	0.536991	0.214503	0.002007
78	H	0.634128	0.120643	0.001561
79	H	0.681273	0.214503	0.002006
80	H	0.790197	0.323427	0.002006
81	H	0.884057	0.370572	0.001561
82	H	0.790199	0.467711	0.002007
83	H	0.884057	0.514425	0.001561
84	H	0.681273	0.467711	0.002007
85	H	0.634129	0.514425	0.001561
86	H	0.490276	0.370572	0.001561
87	H	0.53699	0.323426	0.002005
88	C	0.530208	0.474489	0.334567
89	N	0.516919	0.487785	0.040655
90	C	0.490188	0.514511	0.04381
91	C	0.475482	0.529221	0.003453
92	N	0.4888	0.515897	0.297322
93	C	0.515456	0.489241	0.294661
94	H	0.524386	0.480314	0.264018
95	C	0.477989	0.526714	0.088703
96	H	0.492892	0.511811	0.11502
97	H	0.435472	0.508631	0.092773
98	H	0.49607	0.569228	0.092773
99	C	0.530209	0.056658	0.334568
100	N	0.516916	0.030072	0.040655
101	C	0.490189	0.976617	0.043809
102	C	0.475482	0.947202	0.003451
103	N	0.488805	0.973846	0.297321
104	C	0.515458	0.027155	0.294661
105	H	0.524391	0.045015	0.264018
106	C	0.477986	0.952213	0.088701
107	H	0.492888	0.982017	0.115018
108	H	0.496068	0.927777	0.09277
109	H	0.435469	0.927777	0.09277
110	C	0.948043	0.474493	0.334569
111	N	0.974631	0.487785	0.040656
112	C	0.977544	0.489241	0.294661
113	H	0.959682	0.48031	0.264019
114	H	0.076925	0.569232	0.092767
115	H	0.076925	0.508635	0.092768
116	C	0.363338	0.722915	0.333757
117	N	0.388835	0.694886	0.333782
118	C	0.363337	0.641362	0.333758
119	N	0.309812	0.615864	0.333782
120	C	0.281785	0.641362	0.333756
121	N	0.309814	0.69489	0.333781
122	C	0.391452	0.613246	0.334016
123	C	0.447282	0.640091	0.33426
124	C	0.475059	0.612475	0.334898
125	C	0.447721	0.556983	0.335339
126	C	0.392226	0.529642	0.334898
127	C	0.364607	0.557416	0.334259
128	C	0.391454	0.779148	0.334013
129	C	0.447283	0.808129	0.334255
130	C	0.475061	0.863527	0.334891
131	C	0.44772	0.891678	0.335336
132	C	0.392228	0.863527	0.334894
133	C	0.364608	0.808129	0.334259
134	C	0.225554	0.613246	0.334014
135	C	0.196569	0.640091	0.334258
136	C	0.141175	0.612475	0.334888
137	C	0.113022	0.556983	0.335333
138	C	0.141175	0.529642	0.334891
139	C	0.196568	0.557416	0.334255
140	H	0.515357	0.883113	0.335316
141	H	0.468651	0.78926	0.33415
142	H	0.371518	0.883113	0.335316
143	H	0.324369	0.78926	0.334148
144	H	0.21544	0.68033	0.334147
145	H	0.121588	0.633183	0.335313
146	H	0.215441	0.53605	0.334151
147	H	0.121587	0.489344	0.335316
148	H	0.324369	0.53605	0.33415
149	H	0.371516	0.489344	0.335316
150	H	0.515355	0.633183	0.335316
151	H	0.468651	0.68033	0.334148
152	C	0.642304	0.280847	0.335487
153	N	0.616805	0.308872	0.33547
154	C	0.642302	0.362396	0.335483
155	N	0.695828	0.387895	0.33547
156	C	0.723855	0.362397	0.335483
157	N	0.695828	0.308872	0.33547
158	C	0.614189	0.390511	0.335336
159	C	0.558358	0.363666	0.335229
160	C	0.530577	0.391285	0.334951
161	C	0.557922	0.446778	0.334684
162	C	0.613416	0.474123	0.334955
163	C	0.641034	0.446341	0.335229
164	C	0.614189	0.224617	0.335336
165	C	0.558357	0.195631	0.335229
166	C	0.530578	0.14023	0.334955
167	C	0.557922	0.112083	0.334687
168	C	0.613416	0.140231	0.334955
169	C	0.641035	0.195631	0.335229
170	C	0.780083	0.390511	0.335336
171	C	0.809069	0.363666	0.335229
172	C	0.86447	0.391286	0.334955
173	C	0.892615	0.446778	0.33469
174	C	0.864468	0.474123	0.334958
175	C	0.809068	0.446341	0.335232
176	H	0.490276	0.120643	0.334894
177	H	0.536991	0.214503	0.335343
178	H	0.634128	0.120643	0.334894
179	H	0.681273	0.214503	0.335339
180	H	0.790197	0.323427	0.335339
181	H	0.884057	0.370572	0.334894
182	H	0.790199	0.467711	0.335339
183	H	0.884057	0.514425	0.334894
184	H	0.681273	0.467711	0.335339
185	H	0.634129	0.514425	0.334894
186	H	0.490276	0.370572	0.334891
187	H	0.53699	0.323426	0.335339
188	C	0.530208	0.474489	0.667902
189	N	0.516919	0.487785	0.373987
190	C	0.490188	0.514511	0.377143
191	C	0.475482	0.529221	0.336788
192	N	0.4888	0.515897	0.630655
193	C	0.515456	0.489241	0.627995
194	H	0.524386	0.480314	0.597351
195	C	0.477989	0.526714	0.422037
196	H	0.492892	0.511811	0.448353
197	H	0.435472	0.508631	0.426106
198	H	0.49607	0.569228	0.426106
199	C	0.530209	0.056658	0.667902
200	N	0.516916	0.030072	0.373987
201	C	0.490189	0.976617	0.377143
202	C	0.475482	0.947202	0.336785
203	N	0.488805	0.973846	0.630655
204	C	0.515458	0.027155	0.627995
205	H	0.524391	0.045015	0.597351
206	C	0.477986	0.952213	0.422034
207	H	0.492888	0.982017	0.448353
208	H	0.496068	0.927777	0.426103
209	H	0.435469	0.927777	0.426103
210	C	0.948043	0.474493	0.667902
211	N	0.974631	0.487785	0.373991
212	C	0.977544	0.489241	0.627995
213	H	0.959682	0.48031	0.597354
214	H	0.076925	0.569232	0.426103
215	H	0.076925	0.508635	0.426103
216	C	0.363338	0.722915	0.667092
217	N	0.388835	0.694886	0.667115
218	C	0.363337	0.641362	0.667092
219	N	0.309812	0.615864	0.667115
220	C	0.281785	0.641362	0.667089
221	N	0.309814	0.69489	0.667115
222	C	0.391452	0.613246	0.66735
223	C	0.447282	0.640091	0.667594
224	C	0.475059	0.612475	0.668229
225	C	0.447721	0.556983	0.668674
226	C	0.392226	0.529642	0.668229
227	C	0.364607	0.557416	0.667594
228	C	0.391454	0.779148	0.667346
229	C	0.447283	0.808129	0.66759
230	C	0.475061	0.863527	0.668223
231	C	0.44772	0.891678	0.668671
232	C	0.392228	0.863527	0.668229
233	C	0.364608	0.808129	0.667594
234	C	0.225554	0.613246	0.667346
235	C	0.196569	0.640091	0.66759
236	C	0.141175	0.612475	0.668223
237	C	0.113022	0.556983	0.668668
238	C	0.141175	0.529642	0.668223
239	C	0.196568	0.557416	0.66759
240	H	0.515357	0.883113	0.668651
241	H	0.468651	0.78926	0.667483
242	H	0.371518	0.883113	0.668648
243	H	0.324369	0.78926	0.667483
244	H	0.21544	0.68033	0.66748
245	H	0.121588	0.633183	0.668644
246	H	0.215441	0.53605	0.667483
247	H	0.121587	0.489344	0.668651
248	H	0.324369	0.53605	0.667483
249	H	0.371516	0.489344	0.668651
250	H	0.515355	0.633183	0.668648
251	H	0.468651	0.68033	0.66748
252	C	0.642304	0.280847	0.668818
253	N	0.616805	0.308872	0.668805
254	C	0.642302	0.362396	0.668818
255	N	0.695828	0.387895	0.668805
256	C	0.723855	0.362397	0.668818
257	N	0.695828	0.308872	0.668805
258	C	0.614189	0.390511	0.668668
259	C	0.558358	0.363666	0.668564
260	C	0.530577	0.391285	0.668286
261	C	0.557922	0.446778	0.668019
262	C	0.613416	0.474123	0.668286
263	C	0.641034	0.446341	0.668564
264	C	0.614189	0.224617	0.668668
265	C	0.558357	0.195631	0.668564
266	C	0.530578	0.14023	0.668286
267	C	0.557922	0.112083	0.668019
268	C	0.613416	0.140231	0.668286
269	C	0.641035	0.195631	0.668564
270	C	0.780083	0.390511	0.668668
271	C	0.809069	0.363666	0.668564
272	C	0.86447	0.391286	0.66829
273	C	0.892615	0.446778	0.668022
274	C	0.864468	0.474123	0.66829
275	C	0.809068	0.446341	0.668564
276	H	0.490276	0.120643	0.668229
277	H	0.536991	0.214503	0.668674
278	H	0.634128	0.120643	0.668226
279	H	0.681273	0.214503	0.668674
280	H	0.790197	0.323427	0.668674
281	H	0.884057	0.370572	0.668229
282	H	0.790199	0.467711	0.668674
283	H	0.884057	0.514425	0.668229
284	H	0.681273	0.467711	0.668674
285	H	0.634129	0.514425	0.668229
286	H	0.490276	0.370572	0.668226
287	H	0.53699	0.323426	0.668671
288	C	0.530208	0.474489	0.001233
289	N	0.516919	0.487785	0.707323
290	C	0.490188	0.514511	0.710478
291	C	0.475482	0.529221	0.67012
292	N	0.4888	0.515897	0.963991
293	C	0.515456	0.489241	0.961327
294	H	0.524386	0.480314	0.930686
295	C	0.477989	0.526714	0.755369
296	H	0.492892	0.511811	0.781688
297	H	0.435472	0.508631	0.759441
298	H	0.49607	0.569228	0.759441
299	C	0.530209	0.056658	0.001237
300	N	0.516916	0.030072	0.707323
301	C	0.490189	0.976617	0.710478
302	C	0.475482	0.947202	0.670117
303	N	0.488805	0.973846	0.963987
304	C	0.515458	0.027155	0.961327
305	H	0.524391	0.045015	0.930686
306	C	0.477986	0.952213	0.755369
307	H	0.492888	0.982017	0.781684
308	H	0.496068	0.927777	0.759438
309	H	0.435469	0.927777	0.759438
310	C	0.948043	0.474493	0.001237
311	N	0.974631	0.487785	0.707323
312	C	0.977544	0.489241	0.961327
313	H	0.959682	0.48031	0.930686
314	H	0.076925	0.569232	0.759434
315	H	0.076925	0.508635	0.759434
