data_C198H90N36O18_2018-02-15_10:42:18
#******************************************
#
# CIF file created by Zeo++
# Zeo++ is an open source package to
# analyze microporous materials
#
#*******************************************

_cell_length_a		29.5625   
_cell_length_b		29.5626   
_cell_length_c		29.905   
_cell_angle_alpha		90   
_cell_angle_beta		90   
_cell_angle_gamma		120   

_symmetry_space_group_name_H-M		'P1'
_symmetry_Int_Tables_number		1
_symmetry_cell_setting		Monoclinic

loop_
_symmetry_equiv_pos_as_xyz
'+x,+y,+z'

loop_
_atom_site_label
_atom_site_type_symbol
_atom_site_fract_x
_atom_site_fract_y
_atom_site_fract_z
1	C	0.009357	0.467258	0.235024
2	H	0.010806	0.457021	0.202672
3	C	0.009357	0.467258	0.568357
4	H	0.010806	0.457021	0.536005
5	C	0.009357	0.467258	0.90169
6	H	0.010806	0.457021	0.869337
7	C	0.027391	0.528902	0.039999
8	C	0.031944	0.501334	0.298761
9	N	0.040611	0.549768	0.080696
10	C	0.027391	0.528902	0.373333
11	C	0.031944	0.501334	0.632092
12	N	0.040611	0.549768	0.414028
13	C	0.027391	0.528902	0.706665
14	C	0.031944	0.501334	0.965428
15	N	0.040611	0.549768	0.747361
16	C	0.362582	0.722282	0.013734
17	N	0.388174	0.694718	0.013588
18	C	0.362824	0.641589	0.012294
19	N	0.309727	0.61613	0.011043
20	C	0.281893	0.641382	0.011461
21	N	0.309478	0.694464	0.012601
22	C	0.390555	0.613622	0.011083
23	C	0.444607	0.638441	0.021091
24	C	0.471999	0.610861	0.019434
25	C	0.446487	0.557611	0.00698
26	C	0.392604	0.532621	0.996905
27	C	0.365105	0.560017	0.999269
28	C	0.390149	0.777997	0.01318
29	C	0.444337	0.807229	0.022669
30	C	0.471757	0.862198	0.020849
31	C	0.446115	0.889871	0.00863
32	C	0.392069	0.861026	0.999242
33	C	0.364542	0.806147	0.001867
34	C	0.226227	0.613427	0.010025
35	C	0.197042	0.638327	0.019918
36	C	0.142085	0.610744	0.01848
37	C	0.114309	0.557392	0.006371
38	C	0.143152	0.532339	0.996316
39	C	0.198065	0.559751	0.998486
40	H	0.511024	0.881782	0.027302
41	H	0.464657	0.788828	0.031076
42	H	0.372125	0.87979	0.990668
43	H	0.325562	0.786988	0.994337
44	H	0.215443	0.676954	0.028652
45	H	0.122549	0.630355	0.02544
46	H	0.217225	0.539972	0.990802
47	H	0.124355	0.493588	0.987893
48	H	0.326206	0.540268	0.991437
49	H	0.372671	0.493948	0.988231
50	H	0.511132	0.630422	0.026448
51	H	0.464798	0.677024	0.029964
52	C	0.642198	0.280894	0.989622
53	N	0.616606	0.308458	0.989759
54	C	0.641948	0.361584	0.991053
55	N	0.695044	0.387045	0.992317
56	C	0.722884	0.361799	0.991912
57	N	0.695301	0.308716	0.990769
58	C	0.614211	0.389547	0.99226
59	C	0.560161	0.364722	0.982248
60	C	0.532765	0.392299	0.983897
61	C	0.55827	0.445549	0.99635
62	C	0.61215	0.470539	0.006436
63	C	0.639653	0.443151	0.004077
64	C	0.614629	0.225181	0.990187
65	C	0.560445	0.195948	0.980673
66	C	0.53302	0.140982	0.982519
67	C	0.558658	0.113308	0.994751
68	C	0.612699	0.142153	0.004157
69	C	0.640233	0.197031	0.001509
70	C	0.778549	0.389759	0.993357
71	C	0.807742	0.364864	0.983479
72	C	0.8627	0.392459	0.984927
73	C	0.890465	0.445811	0.997022
74	C	0.861614	0.470856	0.007078
75	C	0.806698	0.443432	0.004897
76	H	0.493764	0.121391	0.976015
77	H	0.540132	0.214348	0.972237
78	H	0.632639	0.123392	0.012754
79	H	0.679201	0.21619	0.009087
80	H	0.78935	0.326241	0.974738
81	H	0.882244	0.372859	0.977951
82	H	0.787534	0.463212	0.012565
83	H	0.880401	0.509614	0.015475
84	H	0.678554	0.462907	0.011901
85	H	0.632077	0.509216	0.015103
86	H	0.493631	0.372731	0.976878
87	H	0.539975	0.326143	0.97337
88	C	0.530497	0.473199	0.999051
89	C	0.532084	0.501404	0.037841
90	C	0.504696	0.52857	0.040184
91	C	0.474249	0.529949	0.004283
92	C	0.472657	0.50174	0.29883
93	C	0.500014	0.474543	0.296499
94	N	0.512456	0.549201	0.080981
95	O	0.557097	0.50463	0.076993
96	C	0.543561	0.534917	0.101823
97	N	0.492323	0.453982	0.255676
98	O	0.447663	0.498533	0.259671
99	C	0.46127	0.468317	0.234816
100	H	0.55544	0.545073	0.134147
101	H	0.449357	0.45813	0.202504
102	C	0.530757	0.057986	0.998215
103	C	0.531885	0.032131	0.037677
104	C	0.504299	0.977638	0.040829
105	C	0.474015	0.945191	0.005166
106	C	0.47285	0.971049	0.299051
107	C	0.500485	0.025539	0.29588
108	N	0.511683	0.965522	0.082041
109	O	0.556693	0.054658	0.076716
110	C	0.542843	0.011298	0.102319
111	N	0.493128	0.037656	0.254661
112	O	0.448055	0.948519	0.260007
113	C	0.46206	0.991875	0.234353
114	H	0.554301	0.01364	0.134848
115	H	0.450348	0.98954	0.201904
116	C	0.945889	0.473453	0.999366
117	C	0.972828	0.5019	0.037951
118	C	0.058883	0.529773	0.004015
119	C	0.977386	0.474367	0.296699
120	O	0.951379	0.505466	0.077177
121	C	0.995418	0.535909	0.101712
122	N	0.964161	0.453412	0.256033
123	O	0.053393	0.497717	0.259552
124	H	0.993964	0.546045	0.134095
125	C	0.362582	0.722282	0.347066
126	N	0.388174	0.694718	0.346922
127	C	0.362824	0.641589	0.345625
128	N	0.309727	0.61613	0.344374
129	C	0.281893	0.641382	0.344796
130	N	0.309478	0.694464	0.345933
131	C	0.390555	0.613622	0.344418
132	C	0.444607	0.638441	0.354423
133	C	0.471999	0.610861	0.352767
134	C	0.446487	0.557611	0.340315
135	C	0.392604	0.532621	0.330239
136	C	0.365105	0.560017	0.332602
137	C	0.390149	0.777997	0.346514
138	C	0.444337	0.807229	0.356001
139	C	0.471757	0.862198	0.354182
140	C	0.446115	0.889871	0.341963
141	C	0.392069	0.861026	0.332577
142	C	0.364542	0.806147	0.335202
143	C	0.226227	0.613427	0.343358
144	C	0.197042	0.638327	0.353249
145	C	0.142085	0.610744	0.351811
146	C	0.114309	0.557392	0.339703
147	C	0.143152	0.532339	0.32965
148	C	0.198065	0.559751	0.331821
149	H	0.511024	0.881782	0.360636
150	H	0.464657	0.788828	0.364411
151	H	0.372125	0.87979	0.324002
152	H	0.325562	0.786988	0.327669
153	H	0.215443	0.676954	0.361987
154	H	0.122549	0.630355	0.358773
155	H	0.217225	0.539972	0.324135
156	H	0.124355	0.493588	0.321227
157	H	0.326206	0.540268	0.324772
158	H	0.372671	0.493948	0.321564
159	H	0.511132	0.630422	0.35978
160	H	0.464798	0.677024	0.363298
161	C	0.642198	0.280894	0.322954
162	N	0.616606	0.308458	0.323093
163	C	0.641948	0.361584	0.324385
164	N	0.695044	0.387045	0.325649
165	C	0.722884	0.361799	0.325245
166	N	0.695301	0.308716	0.324102
167	C	0.614211	0.389547	0.325594
168	C	0.560161	0.364722	0.315583
169	C	0.532765	0.392299	0.317232
170	C	0.55827	0.445549	0.329685
171	C	0.61215	0.470539	0.33977
172	C	0.639653	0.443151	0.337409
173	C	0.614629	0.225181	0.32352
174	C	0.560445	0.195948	0.314006
175	C	0.53302	0.140982	0.315853
176	C	0.558658	0.113308	0.328084
177	C	0.612699	0.142153	0.337489
178	C	0.640233	0.197031	0.334844
179	C	0.778549	0.389759	0.326693
180	C	0.807742	0.364864	0.316812
181	C	0.8627	0.392459	0.318262
182	C	0.890465	0.445811	0.330356
183	C	0.861614	0.470856	0.340412
184	C	0.806698	0.443432	0.338231
185	H	0.493764	0.121391	0.30935
186	H	0.540132	0.214348	0.305572
187	H	0.632639	0.123392	0.346086
188	H	0.679201	0.21619	0.342421
189	H	0.78935	0.326241	0.308071
190	H	0.882244	0.372859	0.311284
191	H	0.787534	0.463212	0.345899
192	H	0.880401	0.509614	0.348808
193	H	0.678554	0.462907	0.345234
194	H	0.632077	0.509216	0.348437
195	H	0.493631	0.372731	0.310213
196	H	0.539975	0.326143	0.306703
197	C	0.530497	0.473199	0.332386
198	C	0.532084	0.501404	0.371176
199	C	0.504696	0.52857	0.373517
200	C	0.474249	0.529949	0.337616
201	C	0.472657	0.50174	0.632163
202	C	0.500014	0.474543	0.629832
203	N	0.512456	0.549201	0.414316
204	O	0.557097	0.50463	0.410326
205	C	0.543561	0.534917	0.435155
206	N	0.492323	0.453982	0.589009
207	O	0.447663	0.498533	0.593005
208	C	0.46127	0.468317	0.56815
209	H	0.55544	0.545073	0.467481
210	H	0.449357	0.45813	0.535837
211	C	0.530757	0.057986	0.331549
212	C	0.531885	0.032131	0.371009
213	C	0.504299	0.977638	0.374162
214	C	0.474015	0.945191	0.338499
215	C	0.47285	0.971049	0.632383
216	C	0.500485	0.025539	0.629213
217	N	0.511683	0.965522	0.415372
218	O	0.556693	0.054658	0.410049
219	C	0.542843	0.011298	0.435653
220	N	0.493128	0.037656	0.587993
221	O	0.448055	0.948519	0.59334
222	C	0.46206	0.991875	0.567685
223	H	0.554301	0.01364	0.46818
224	H	0.450348	0.98954	0.535236
225	C	0.945889	0.473453	0.332699
226	C	0.972828	0.5019	0.371283
227	C	0.058883	0.529773	0.337349
228	C	0.977386	0.474367	0.630032
229	O	0.951379	0.505466	0.41051
230	C	0.995418	0.535909	0.435045
231	N	0.964161	0.453412	0.589367
232	O	0.053393	0.497717	0.592885
233	H	0.993964	0.546045	0.467427
234	C	0.362582	0.722282	0.680399
235	N	0.388174	0.694718	0.680255
236	C	0.362824	0.641589	0.678961
237	N	0.309727	0.61613	0.67771
238	C	0.281893	0.641382	0.678128
239	N	0.309478	0.694464	0.679265
240	C	0.390555	0.613622	0.67775
241	C	0.444607	0.638441	0.687759
242	C	0.471999	0.610861	0.6861
243	C	0.446487	0.557611	0.673647
244	C	0.392604	0.532621	0.663572
245	C	0.365105	0.560017	0.665933
246	C	0.390149	0.777997	0.679847
247	C	0.444337	0.807229	0.689334
248	C	0.471757	0.862198	0.687515
249	C	0.446115	0.889871	0.675296
250	C	0.392069	0.861026	0.665909
251	C	0.364542	0.806147	0.668534
252	C	0.226227	0.613427	0.67669
253	C	0.197042	0.638327	0.686585
254	C	0.142085	0.610744	0.685147
255	C	0.114309	0.557392	0.673035
256	C	0.143152	0.532339	0.662984
257	C	0.198065	0.559751	0.665154
258	H	0.511024	0.881782	0.693968
259	H	0.464657	0.788828	0.697744
260	H	0.372125	0.87979	0.657336
261	H	0.325562	0.786988	0.661004
262	H	0.215443	0.676954	0.695319
263	H	0.122549	0.630355	0.692106
264	H	0.217225	0.539972	0.657469
265	H	0.124355	0.493588	0.65456
266	H	0.326206	0.540268	0.658105
267	H	0.372671	0.493948	0.654898
268	H	0.511132	0.630422	0.693112
269	H	0.464798	0.677024	0.69663
270	C	0.642198	0.280894	0.656286
271	N	0.616606	0.308458	0.656426
272	C	0.641948	0.361584	0.657717
273	N	0.695044	0.387045	0.658981
274	C	0.722884	0.361799	0.658576
275	N	0.695301	0.308716	0.657436
276	C	0.614211	0.389547	0.658927
277	C	0.560161	0.364722	0.648916
278	C	0.532765	0.392299	0.650564
279	C	0.55827	0.445549	0.663017
280	C	0.61215	0.470539	0.673102
281	C	0.639653	0.443151	0.670741
282	C	0.614629	0.225181	0.656854
283	C	0.560445	0.195948	0.647341
284	C	0.53302	0.140982	0.649186
285	C	0.558658	0.113308	0.661419
286	C	0.612699	0.142153	0.670822
287	C	0.640233	0.197031	0.668177
288	C	0.778549	0.389759	0.660024
289	C	0.807742	0.364864	0.650146
290	C	0.8627	0.392459	0.651594
291	C	0.890465	0.445811	0.663689
292	C	0.861614	0.470856	0.673744
293	C	0.806698	0.443432	0.671564
294	H	0.493764	0.121391	0.642683
295	H	0.540132	0.214348	0.638904
296	H	0.632639	0.123392	0.679419
297	H	0.679201	0.21619	0.675754
298	H	0.78935	0.326241	0.641405
299	H	0.882244	0.372859	0.644615
300	H	0.787534	0.463212	0.679232
301	H	0.880401	0.509614	0.682141
302	H	0.678554	0.462907	0.678566
303	H	0.632077	0.509216	0.68177
304	H	0.493631	0.372731	0.643545
305	H	0.539975	0.326143	0.640034
306	C	0.530497	0.473199	0.665719
307	C	0.532084	0.501404	0.704508
308	C	0.504696	0.52857	0.706849
309	C	0.474249	0.529949	0.670949
310	C	0.472657	0.50174	0.965495
311	C	0.500014	0.474543	0.963164
312	N	0.512456	0.549201	0.747648
313	O	0.557097	0.50463	0.743659
314	C	0.543561	0.534917	0.768488
315	N	0.492323	0.453982	0.922342
316	O	0.447663	0.498533	0.926338
317	C	0.46127	0.468317	0.901482
318	H	0.55544	0.545073	0.800813
319	H	0.449357	0.45813	0.86917
320	C	0.530757	0.057986	0.664883
321	C	0.531885	0.032131	0.704341
322	C	0.504299	0.977638	0.707495
323	C	0.474015	0.945191	0.671832
324	C	0.47285	0.971049	0.965716
325	C	0.500485	0.025539	0.962546
326	N	0.511683	0.965522	0.748708
327	O	0.556693	0.054658	0.743382
328	C	0.542843	0.011298	0.768986
329	N	0.493128	0.037656	0.921325
330	O	0.448055	0.948519	0.926672
331	C	0.46206	0.991875	0.901021
332	H	0.554301	0.01364	0.801516
333	H	0.450348	0.98954	0.868571
334	C	0.945889	0.473453	0.666033
335	C	0.972828	0.5019	0.704615
336	C	0.058883	0.529773	0.670681
337	C	0.977386	0.474367	0.963365
338	O	0.951379	0.505466	0.743843
339	C	0.995418	0.535909	0.768377
340	N	0.964161	0.453412	0.9227
341	O	0.053393	0.497717	0.926217
342	H	0.993964	0.546045	0.80076
