data_C324H216N72O36_2018-02-15_10:40:01
#******************************************
#
# CIF file created by Zeo++
# Zeo++ is an open source package to
# analyze microporous materials
#
#*******************************************

_cell_length_a		29.7586   
_cell_length_b		29.7586   
_cell_length_c		30.0068   
_cell_angle_alpha		90   
_cell_angle_beta		90   
_cell_angle_gamma		120   

_symmetry_space_group_name_H-M		'P1'
_symmetry_Int_Tables_number		1
_symmetry_cell_setting		Monoclinic

loop_
_symmetry_equiv_pos_as_xyz
'+x,+y,+z'

loop_
_atom_site_label
_atom_site_type_symbol
_atom_site_fract_x
_atom_site_fract_y
_atom_site_fract_z
1	C	0.110416	0.309535	0.013745
2	C	0.143775	0.363946	0.013063
3	C	0.198866	0.389275	0.013763
4	C	0.219915	0.355913	0.013099
5	C	0.190148	0.300823	0.013767
6	C	0.135735	0.279762	0.013082
7	H	0.258723	0.372312	0.010003
8	H	0.113343	0.240956	0.009913
9	H	0.127364	0.38635	0.009935
10	C	0.388983	0.194162	0.008179
11	C	0.359918	0.139222	0.008205
12	C	0.30491	0.110715	0.00821
13	C	0.279033	0.139778	0.008186
14	C	0.305535	0.194785	0.008183
15	C	0.360476	0.220664	0.008158
16	H	0.239483	0.120368	0.009138
17	H	0.380616	0.260215	0.009087
18	H	0.379329	0.119081	0.009137
19	C	0.2149	0.270037	0.013656
20	N	0.266313	0.295408	0.335997
21	C	0.29807	0.275204	0.333804
22	C	0.277437	0.221909	0.009191
23	N	0.2265	0.196447	0.020885
24	C	0.194091	0.216237	0.024068
25	H	0.335414	0.298881	0.323795
26	C	0.14273	0.179317	0.043832
27	O	0.130136	0.200537	0.081515
28	H	0.141162	0.143364	0.054591
29	H	0.112726	0.167681	0.01849
30	H	0.155359	0.206844	0.105379
31	C	0.229658	0.444816	0.013698
32	N	0.204282	0.47086	0.336063
33	C	0.224492	0.022821	0.333834
34	C	0.27778	0.055493	0.009247
35	N	0.303254	0.030025	0.020915
36	C	0.283446	0.477829	0.024151
37	H	0.200768	0.036486	0.323959
38	C	0.320489	0.463383	0.043631
39	O	0.299493	0.429559	0.081334
40	H	0.356502	0.497766	0.05429
41	H	0.331981	0.445034	0.018154
42	H	0.293327	0.448468	0.105297
43	C	0.054877	0.284789	0.013628
44	N	0.028828	0.233366	0.336007
45	C	0.476865	0.201611	0.333821
46	C	0.444206	0.222257	0.009176
47	N	0.469687	0.273199	0.020849
48	C	0.021888	0.305605	0.024028
49	H	0.463191	0.164257	0.32384
50	C	0.036326	0.356976	0.043771
51	O	0.070124	0.369579	0.081467
52	H	0.001938	0.358553	0.054512
53	H	0.054704	0.386969	0.018422
54	H	0.051196	0.344365	0.105334
55	C	0.110416	0.309535	0.347077
56	C	0.143775	0.363946	0.346398
57	C	0.198866	0.389275	0.347097
58	C	0.219915	0.355913	0.346434
59	C	0.190148	0.300823	0.347101
60	C	0.135735	0.279762	0.346418
61	H	0.258723	0.372312	0.343338
62	H	0.113343	0.240956	0.343248
63	H	0.127364	0.38635	0.343268
64	C	0.388983	0.194162	0.341512
65	C	0.359918	0.139222	0.341539
66	C	0.30491	0.110715	0.341545
67	C	0.279033	0.139778	0.341519
68	C	0.305535	0.194785	0.341515
69	C	0.360476	0.220664	0.341492
70	H	0.239483	0.120368	0.342472
71	H	0.380616	0.260215	0.342422
72	H	0.379329	0.119081	0.342472
73	C	0.2149	0.270037	0.346991
74	N	0.266313	0.295408	0.669331
75	C	0.29807	0.275204	0.667138
76	C	0.277437	0.221909	0.342525
77	N	0.2265	0.196447	0.354219
78	C	0.194091	0.216237	0.357402
79	H	0.335414	0.298881	0.65713
80	C	0.14273	0.179317	0.377164
81	O	0.130136	0.200537	0.414849
82	H	0.141162	0.143364	0.387925
83	H	0.112726	0.167681	0.351823
84	H	0.155359	0.206844	0.438713
85	C	0.229658	0.444816	0.347031
86	N	0.204282	0.47086	0.669397
87	C	0.224492	0.022821	0.667168
88	C	0.27778	0.055493	0.342582
89	N	0.303254	0.030025	0.354249
90	C	0.283446	0.477829	0.357485
91	H	0.200768	0.036486	0.657293
92	C	0.320489	0.463383	0.376964
93	O	0.299493	0.429559	0.414669
94	H	0.356502	0.497766	0.387625
95	H	0.331981	0.445034	0.35149
96	H	0.293327	0.448468	0.43863
97	C	0.054877	0.284789	0.346961
98	N	0.028828	0.233366	0.669341
99	C	0.476865	0.201611	0.667154
100	C	0.444206	0.222257	0.342512
101	N	0.469687	0.273199	0.354183
102	C	0.021888	0.305605	0.357362
103	H	0.463191	0.164257	0.657173
104	C	0.036326	0.356976	0.377104
105	O	0.070124	0.369579	0.414802
106	H	0.001938	0.358553	0.387845
107	H	0.054704	0.386969	0.351756
108	H	0.051196	0.344365	0.438667
109	C	0.110416	0.309535	0.680411
110	C	0.143775	0.363946	0.679732
111	C	0.198866	0.389275	0.680431
112	C	0.219915	0.355913	0.679768
113	C	0.190148	0.300823	0.680435
114	C	0.135735	0.279762	0.679748
115	H	0.258723	0.372312	0.676672
116	H	0.113343	0.240956	0.676582
117	H	0.127364	0.38635	0.676602
118	C	0.388983	0.194162	0.674846
119	C	0.359918	0.139222	0.674873
120	C	0.30491	0.110715	0.674879
121	C	0.279033	0.139778	0.674853
122	C	0.305535	0.194785	0.674849
123	C	0.360476	0.220664	0.674826
124	H	0.239483	0.120368	0.675806
125	H	0.380616	0.260215	0.675756
126	H	0.379329	0.119081	0.675806
127	C	0.2149	0.270037	0.680325
128	N	0.266313	0.295408	0.002664
129	C	0.29807	0.275204	0.000469
130	C	0.277437	0.221909	0.675859
131	N	0.2265	0.196447	0.687553
132	C	0.194091	0.216237	0.690736
133	H	0.335414	0.298881	0.990464
134	C	0.14273	0.179317	0.710498
135	O	0.130136	0.200537	0.748183
136	H	0.141162	0.143364	0.721259
137	H	0.112726	0.167681	0.685157
138	H	0.155359	0.206844	0.772047
139	C	0.229658	0.444816	0.680365
140	N	0.204282	0.47086	0.002729
141	C	0.224492	0.022821	0.000501
142	C	0.27778	0.055493	0.675916
143	N	0.303254	0.030025	0.687583
144	C	0.283446	0.477829	0.690819
145	H	0.200768	0.036486	0.990627
146	C	0.320489	0.463383	0.710298
147	O	0.299493	0.429559	0.748003
148	H	0.356502	0.497766	0.720959
149	H	0.331981	0.445034	0.68482
150	H	0.293327	0.448468	0.771964
151	C	0.054877	0.284789	0.680295
152	N	0.028828	0.233366	0.002673
153	C	0.476865	0.201611	0.000488
154	C	0.444206	0.222257	0.675842
155	N	0.469687	0.273199	0.687516
156	C	0.021888	0.305605	0.690696
157	H	0.463191	0.164257	0.990507
158	C	0.036326	0.356976	0.710438
159	O	0.070124	0.369579	0.748133
160	H	0.001938	0.358553	0.721179
161	H	0.054704	0.386969	0.68509
162	H	0.051196	0.344365	0.772001
163	C	0.110415	0.809533	0.013745
164	C	0.143774	0.863946	0.013063
165	C	0.198864	0.889272	0.013763
166	C	0.219915	0.855914	0.013099
167	C	0.190147	0.800822	0.013767
168	C	0.135734	0.779761	0.013082
169	H	0.258723	0.872311	0.010003
170	H	0.113341	0.740954	0.009913
171	H	0.127364	0.88635	0.009935
172	C	0.388983	0.694163	0.008179
173	C	0.359918	0.639223	0.008205
174	C	0.30491	0.610715	0.00821
175	C	0.279033	0.639778	0.008186
176	C	0.305534	0.694784	0.008183
177	C	0.360477	0.720665	0.008158
178	H	0.239483	0.620369	0.009138
179	H	0.380616	0.760216	0.009087
180	H	0.379329	0.619081	0.009137
181	C	0.214899	0.770037	0.013656
182	N	0.266313	0.795409	0.335997
183	C	0.29807	0.775205	0.333804
184	C	0.277437	0.72191	0.009191
185	N	0.226499	0.696445	0.020885
186	C	0.194091	0.716238	0.024068
187	H	0.335415	0.798882	0.323795
188	C	0.14273	0.679317	0.043832
189	O	0.130136	0.700538	0.081515
190	H	0.141161	0.643363	0.054591
191	H	0.112725	0.66768	0.01849
192	H	0.155359	0.706844	0.105379
193	C	0.229656	0.944813	0.013698
194	N	0.20428	0.970857	0.336063
195	C	0.224491	0.52282	0.333834
196	C	0.277779	0.555492	0.009247
197	N	0.303255	0.530026	0.020915
198	C	0.283446	0.97783	0.024151
199	H	0.200768	0.536486	0.323959
200	C	0.320488	0.96338	0.043631
201	O	0.299493	0.92956	0.081334
202	H	0.356502	0.997767	0.05429
203	H	0.331981	0.945034	0.018154
204	H	0.293327	0.948468	0.105297
205	C	0.054875	0.784789	0.013628
206	N	0.028827	0.733365	0.336007
207	C	0.476864	0.701609	0.333821
208	C	0.444205	0.722256	0.009176
209	N	0.469686	0.773199	0.020849
210	C	0.021888	0.805607	0.024028
211	H	0.463193	0.664258	0.32384
212	C	0.036326	0.856977	0.043771
213	O	0.070126	0.86958	0.081467
214	H	0.001937	0.858552	0.054512
215	H	0.054702	0.886967	0.018422
216	H	0.051196	0.844362	0.105334
217	C	0.110415	0.809533	0.347077
218	C	0.143774	0.863946	0.346398
219	C	0.198864	0.889272	0.347097
220	C	0.219915	0.855914	0.346434
221	C	0.190147	0.800822	0.347101
222	C	0.135734	0.779761	0.346418
223	H	0.258723	0.872311	0.343338
224	H	0.113341	0.740954	0.343248
225	H	0.127364	0.88635	0.343268
226	C	0.388983	0.694163	0.341512
227	C	0.359918	0.639223	0.341539
228	C	0.30491	0.610715	0.341545
229	C	0.279033	0.639778	0.341519
230	C	0.305534	0.694784	0.341515
231	C	0.360477	0.720665	0.341492
232	H	0.239483	0.620369	0.342472
233	H	0.380616	0.760216	0.342422
234	H	0.379329	0.619081	0.342472
235	C	0.214899	0.770037	0.346991
236	N	0.266313	0.795409	0.669331
237	C	0.29807	0.775205	0.667138
238	C	0.277437	0.72191	0.342525
239	N	0.226499	0.696445	0.354219
240	C	0.194091	0.716238	0.357402
241	H	0.335415	0.798882	0.65713
242	C	0.14273	0.679317	0.377164
243	O	0.130136	0.700538	0.414849
244	H	0.141161	0.643363	0.387925
245	H	0.112725	0.66768	0.351823
246	H	0.155359	0.706844	0.438713
247	C	0.229656	0.944813	0.347031
248	N	0.20428	0.970857	0.669397
249	C	0.224491	0.52282	0.667168
250	C	0.277779	0.555492	0.342582
251	N	0.303255	0.530026	0.354249
252	C	0.283446	0.97783	0.357485
253	H	0.200768	0.536486	0.657293
254	C	0.320488	0.96338	0.376964
255	O	0.299493	0.92956	0.414669
256	H	0.356502	0.997767	0.387625
257	H	0.331981	0.945034	0.35149
258	H	0.293327	0.948468	0.43863
259	C	0.054875	0.784789	0.346961
260	N	0.028827	0.733365	0.669341
261	C	0.476864	0.701609	0.667154
262	C	0.444205	0.722256	0.342512
263	N	0.469686	0.773199	0.354183
264	C	0.021888	0.805607	0.357362
265	H	0.463193	0.664258	0.657173
266	C	0.036326	0.856977	0.377104
267	O	0.070126	0.86958	0.414802
268	H	0.001937	0.858552	0.387845
269	H	0.054702	0.886967	0.351756
270	H	0.051196	0.844362	0.438667
271	C	0.110415	0.809533	0.680411
272	C	0.143774	0.863946	0.679732
273	C	0.198864	0.889272	0.680431
274	C	0.219915	0.855914	0.679768
275	C	0.190147	0.800822	0.680435
276	C	0.135734	0.779761	0.679748
277	H	0.258723	0.872311	0.676672
278	H	0.113341	0.740954	0.676582
279	H	0.127364	0.88635	0.676602
280	C	0.388983	0.694163	0.674846
281	C	0.359918	0.639223	0.674873
282	C	0.30491	0.610715	0.674879
283	C	0.279033	0.639778	0.674853
284	C	0.305534	0.694784	0.674849
285	C	0.360477	0.720665	0.674826
286	H	0.239483	0.620369	0.675806
287	H	0.380616	0.760216	0.675756
288	H	0.379329	0.619081	0.675806
289	C	0.214899	0.770037	0.680325
290	N	0.266313	0.795409	0.002664
291	C	0.29807	0.775205	0.000469
292	C	0.277437	0.72191	0.675859
293	N	0.226499	0.696445	0.687553
294	C	0.194091	0.716238	0.690736
295	H	0.335415	0.798882	0.990464
296	C	0.14273	0.679317	0.710498
297	O	0.130136	0.700538	0.748183
298	H	0.141161	0.643363	0.721259
299	H	0.112725	0.66768	0.685157
300	H	0.155359	0.706844	0.772047
301	C	0.229656	0.944813	0.680365
302	N	0.20428	0.970857	0.002729
303	C	0.224491	0.52282	0.000501
304	C	0.277779	0.555492	0.675916
305	N	0.303255	0.530026	0.687583
306	C	0.283446	0.97783	0.690819
307	H	0.200768	0.536486	0.990627
308	C	0.320488	0.96338	0.710298
309	O	0.299493	0.92956	0.748003
310	H	0.356502	0.997767	0.720959
311	H	0.331981	0.945034	0.68482
312	H	0.293327	0.948468	0.771964
313	C	0.054875	0.784789	0.680295
314	N	0.028827	0.733365	0.002673
315	C	0.476864	0.701609	0.000488
316	C	0.444205	0.722256	0.675842
317	N	0.469686	0.773199	0.687516
318	C	0.021888	0.805607	0.690696
319	H	0.463193	0.664258	0.990507
320	C	0.036326	0.856977	0.710438
321	O	0.070126	0.86958	0.748133
322	H	0.001937	0.858552	0.721179
323	H	0.054702	0.886967	0.68509
324	H	0.051196	0.844362	0.772001
325	C	0.610417	0.309535	0.013745
326	C	0.643776	0.363946	0.013063
327	C	0.698868	0.389275	0.013763
328	C	0.719914	0.355913	0.013099
329	C	0.690148	0.300823	0.013767
330	C	0.635735	0.279762	0.013082
331	H	0.758723	0.372312	0.010003
332	H	0.613344	0.240956	0.009913
333	H	0.627366	0.38635	0.009935
334	C	0.888983	0.194162	0.008179
335	C	0.859917	0.139222	0.008205
336	C	0.804912	0.110715	0.00821
337	C	0.779035	0.139778	0.008186
338	C	0.805537	0.194785	0.008183
339	C	0.860478	0.220664	0.008158
340	H	0.739484	0.120368	0.009138
341	H	0.880616	0.260215	0.009087
342	H	0.87933	0.119081	0.009137
343	C	0.714902	0.270037	0.013656
344	N	0.766312	0.295408	0.335997
345	C	0.79807	0.275204	0.333804
346	C	0.777438	0.221909	0.009191
347	N	0.726502	0.196447	0.020885
348	C	0.694091	0.216237	0.024068
349	H	0.835414	0.298881	0.323795
350	C	0.642729	0.179317	0.043832
351	O	0.630136	0.200537	0.081515
352	H	0.641161	0.143364	0.054591
353	H	0.612726	0.167681	0.01849
354	H	0.65536	0.206844	0.105379
355	C	0.729657	0.444816	0.013698
356	N	0.704283	0.47086	0.336063
357	C	0.724492	0.022821	0.333834
358	C	0.777782	0.055493	0.009247
359	N	0.803255	0.030025	0.020915
360	C	0.783446	0.477829	0.024151
361	H	0.700768	0.036486	0.323959
362	C	0.820489	0.463383	0.043631
363	O	0.799495	0.429559	0.081334
364	H	0.856502	0.497766	0.05429
365	H	0.831981	0.445034	0.018154
366	H	0.793326	0.448468	0.105297
367	C	0.554877	0.284789	0.013628
368	N	0.528829	0.233366	0.336007
369	C	0.976865	0.201611	0.333821
370	C	0.944205	0.222257	0.009176
371	N	0.969687	0.273199	0.020849
372	C	0.521889	0.305605	0.024028
373	H	0.963195	0.164257	0.32384
374	C	0.536327	0.356976	0.043771
375	O	0.570123	0.369579	0.081467
376	H	0.501939	0.358553	0.054512
377	H	0.554705	0.386969	0.018422
378	H	0.551195	0.344365	0.105334
379	C	0.610417	0.309535	0.347077
380	C	0.643776	0.363946	0.346398
381	C	0.698868	0.389275	0.347097
382	C	0.719914	0.355913	0.346434
383	C	0.690148	0.300823	0.347101
384	C	0.635735	0.279762	0.346418
385	H	0.758723	0.372312	0.343338
386	H	0.613344	0.240956	0.343248
387	H	0.627366	0.38635	0.343268
388	C	0.888983	0.194162	0.341512
389	C	0.859917	0.139222	0.341539
390	C	0.804912	0.110715	0.341545
391	C	0.779035	0.139778	0.341519
392	C	0.805537	0.194785	0.341515
393	C	0.860478	0.220664	0.341492
394	H	0.739484	0.120368	0.342472
395	H	0.880616	0.260215	0.342422
396	H	0.87933	0.119081	0.342472
397	C	0.714902	0.270037	0.346991
398	N	0.766312	0.295408	0.669331
399	C	0.79807	0.275204	0.667138
400	C	0.777438	0.221909	0.342525
401	N	0.726502	0.196447	0.354219
402	C	0.694091	0.216237	0.357402
403	H	0.835414	0.298881	0.65713
404	C	0.642729	0.179317	0.377164
405	O	0.630136	0.200537	0.414849
406	H	0.641161	0.143364	0.387925
407	H	0.612726	0.167681	0.351823
408	H	0.65536	0.206844	0.438713
409	C	0.729657	0.444816	0.347031
410	N	0.704283	0.47086	0.669397
411	C	0.724492	0.022821	0.667168
412	C	0.777782	0.055493	0.342582
413	N	0.803255	0.030025	0.354249
414	C	0.783446	0.477829	0.357485
415	H	0.700768	0.036486	0.657293
416	C	0.820489	0.463383	0.376964
417	O	0.799495	0.429559	0.414669
418	H	0.856502	0.497766	0.387625
419	H	0.831981	0.445034	0.35149
420	H	0.793326	0.448468	0.43863
421	C	0.554877	0.284789	0.346961
422	N	0.528829	0.233366	0.669341
423	C	0.976865	0.201611	0.667154
424	C	0.944205	0.222257	0.342512
425	N	0.969687	0.273199	0.354183
426	C	0.521889	0.305605	0.357362
427	H	0.963195	0.164257	0.657173
428	C	0.536327	0.356976	0.377104
429	O	0.570123	0.369579	0.414802
430	H	0.501939	0.358553	0.387845
431	H	0.554705	0.386969	0.351756
432	H	0.551195	0.344365	0.438667
433	C	0.610417	0.309535	0.680411
434	C	0.643776	0.363946	0.679732
435	C	0.698868	0.389275	0.680431
436	C	0.719914	0.355913	0.679768
437	C	0.690148	0.300823	0.680435
438	C	0.635735	0.279762	0.679748
439	H	0.758723	0.372312	0.676672
440	H	0.613344	0.240956	0.676582
441	H	0.627366	0.38635	0.676602
442	C	0.888983	0.194162	0.674846
443	C	0.859917	0.139222	0.674873
444	C	0.804912	0.110715	0.674879
445	C	0.779035	0.139778	0.674853
446	C	0.805537	0.194785	0.674849
447	C	0.860478	0.220664	0.674826
448	H	0.739484	0.120368	0.675806
449	H	0.880616	0.260215	0.675756
450	H	0.87933	0.119081	0.675806
451	C	0.714902	0.270037	0.680325
452	N	0.766312	0.295408	0.002664
453	C	0.79807	0.275204	0.000469
454	C	0.777438	0.221909	0.675859
455	N	0.726502	0.196447	0.687553
456	C	0.694091	0.216237	0.690736
457	H	0.835414	0.298881	0.990464
458	C	0.642729	0.179317	0.710498
459	O	0.630136	0.200537	0.748183
460	H	0.641161	0.143364	0.721259
461	H	0.612726	0.167681	0.685157
462	H	0.65536	0.206844	0.772047
463	C	0.729657	0.444816	0.680365
464	N	0.704283	0.47086	0.002729
465	C	0.724492	0.022821	0.000501
466	C	0.777782	0.055493	0.675916
467	N	0.803255	0.030025	0.687583
468	C	0.783446	0.477829	0.690819
469	H	0.700768	0.036486	0.990627
470	C	0.820489	0.463383	0.710298
471	O	0.799495	0.429559	0.748003
472	H	0.856502	0.497766	0.720959
473	H	0.831981	0.445034	0.68482
474	H	0.793326	0.448468	0.771964
475	C	0.554877	0.284789	0.680295
476	N	0.528829	0.233366	0.002673
477	C	0.976865	0.201611	0.000488
478	C	0.944205	0.222257	0.675842
479	N	0.969687	0.273199	0.687516
480	C	0.521889	0.305605	0.690696
481	H	0.963195	0.164257	0.990507
482	C	0.536327	0.356976	0.710438
483	O	0.570123	0.369579	0.748133
484	H	0.501939	0.358553	0.721179
485	H	0.554705	0.386969	0.68509
486	H	0.551195	0.344365	0.772001
487	C	0.610416	0.809533	0.013745
488	C	0.643774	0.863946	0.013063
489	C	0.698865	0.889272	0.013763
490	C	0.719915	0.855914	0.013099
491	C	0.690148	0.800822	0.013767
492	C	0.635734	0.779761	0.013082
493	H	0.758723	0.872311	0.010003
494	H	0.613342	0.740954	0.009913
495	H	0.627364	0.88635	0.009935
496	C	0.888982	0.694163	0.008179
497	C	0.859919	0.639223	0.008205
498	C	0.804911	0.610715	0.00821
499	C	0.779034	0.639778	0.008186
500	C	0.805535	0.694784	0.008183
501	C	0.860477	0.720665	0.008158
502	H	0.739482	0.620369	0.009138
503	H	0.880615	0.760216	0.009087
504	H	0.879329	0.619081	0.009137
505	C	0.7149	0.770037	0.013656
506	N	0.766314	0.795409	0.335997
507	C	0.798072	0.775205	0.333804
508	C	0.777436	0.72191	0.009191
509	N	0.726499	0.696445	0.020885
510	C	0.694091	0.716238	0.024068
511	H	0.835416	0.798882	0.323795
512	C	0.64273	0.679317	0.043832
513	O	0.630137	0.700538	0.081515
514	H	0.641162	0.643363	0.054591
515	H	0.612726	0.66768	0.01849
516	H	0.655359	0.706844	0.105379
517	C	0.729656	0.944813	0.013698
518	N	0.70428	0.970857	0.336063
519	C	0.724493	0.52282	0.333834
520	C	0.777779	0.555492	0.009247
521	N	0.803254	0.530026	0.020915
522	C	0.783447	0.97783	0.024151
523	H	0.70077	0.536486	0.323959
524	C	0.82049	0.96338	0.043631
525	O	0.799494	0.92956	0.081334
526	H	0.856501	0.997767	0.05429
527	H	0.831983	0.945034	0.018154
528	H	0.793328	0.948468	0.105297
529	C	0.554877	0.784789	0.013628
530	N	0.528828	0.733365	0.336007
531	C	0.976866	0.701609	0.333821
532	C	0.944206	0.722256	0.009176
533	N	0.969688	0.773199	0.020849
534	C	0.521888	0.805607	0.024028
535	H	0.963194	0.664258	0.32384
536	C	0.536326	0.856977	0.043771
537	O	0.570125	0.86958	0.081467
538	H	0.501938	0.858552	0.054512
539	H	0.554703	0.886967	0.018422
540	H	0.551195	0.844362	0.105334
541	C	0.610416	0.809533	0.347077
542	C	0.643774	0.863946	0.346398
543	C	0.698865	0.889272	0.347097
544	C	0.719915	0.855914	0.346434
545	C	0.690148	0.800822	0.347101
546	C	0.635734	0.779761	0.346418
547	H	0.758723	0.872311	0.343338
548	H	0.613342	0.740954	0.343248
549	H	0.627364	0.88635	0.343268
550	C	0.888982	0.694163	0.341512
551	C	0.859919	0.639223	0.341539
552	C	0.804911	0.610715	0.341545
553	C	0.779034	0.639778	0.341519
554	C	0.805535	0.694784	0.341515
555	C	0.860477	0.720665	0.341492
556	H	0.739482	0.620369	0.342472
557	H	0.880615	0.760216	0.342422
558	H	0.879329	0.619081	0.342472
559	C	0.7149	0.770037	0.346991
560	N	0.766314	0.795409	0.669331
561	C	0.798072	0.775205	0.667138
562	C	0.777436	0.72191	0.342525
563	N	0.726499	0.696445	0.354219
564	C	0.694091	0.716238	0.357402
565	H	0.835416	0.798882	0.65713
566	C	0.64273	0.679317	0.377164
567	O	0.630137	0.700538	0.414849
568	H	0.641162	0.643363	0.387925
569	H	0.612726	0.66768	0.351823
570	H	0.655359	0.706844	0.438713
571	C	0.729656	0.944813	0.347031
572	N	0.70428	0.970857	0.669397
573	C	0.724493	0.52282	0.667168
574	C	0.777779	0.555492	0.342582
575	N	0.803254	0.530026	0.354249
576	C	0.783447	0.97783	0.357485
577	H	0.70077	0.536486	0.657293
578	C	0.82049	0.96338	0.376964
579	O	0.799494	0.92956	0.414669
580	H	0.856501	0.997767	0.387625
581	H	0.831983	0.945034	0.35149
582	H	0.793328	0.948468	0.43863
583	C	0.554877	0.784789	0.346961
584	N	0.528828	0.733365	0.669341
585	C	0.976866	0.701609	0.667154
586	C	0.944206	0.722256	0.342512
587	N	0.969688	0.773199	0.354183
588	C	0.521888	0.805607	0.357362
589	H	0.963194	0.664258	0.657173
590	C	0.536326	0.856977	0.377104
591	O	0.570125	0.86958	0.414802
592	H	0.501938	0.858552	0.387845
593	H	0.554703	0.886967	0.351756
594	H	0.551195	0.844362	0.438667
595	C	0.610416	0.809533	0.680411
596	C	0.643774	0.863946	0.679732
597	C	0.698865	0.889272	0.680431
598	C	0.719915	0.855914	0.679768
599	C	0.690148	0.800822	0.680435
600	C	0.635734	0.779761	0.679748
601	H	0.758723	0.872311	0.676672
602	H	0.613342	0.740954	0.676582
603	H	0.627364	0.88635	0.676602
604	C	0.888982	0.694163	0.674846
605	C	0.859919	0.639223	0.674873
606	C	0.804911	0.610715	0.674879
607	C	0.779034	0.639778	0.674853
608	C	0.805535	0.694784	0.674849
609	C	0.860477	0.720665	0.674826
610	H	0.739482	0.620369	0.675806
611	H	0.880615	0.760216	0.675756
612	H	0.879329	0.619081	0.675806
613	C	0.7149	0.770037	0.680325
614	N	0.766314	0.795409	0.002664
615	C	0.798072	0.775205	0.000469
616	C	0.777436	0.72191	0.675859
617	N	0.726499	0.696445	0.687553
618	C	0.694091	0.716238	0.690736
619	H	0.835416	0.798882	0.990464
620	C	0.64273	0.679317	0.710498
621	O	0.630137	0.700538	0.748183
622	H	0.641162	0.643363	0.721259
623	H	0.612726	0.66768	0.685157
624	H	0.655359	0.706844	0.772047
625	C	0.729656	0.944813	0.680365
626	N	0.70428	0.970857	0.002729
627	C	0.724493	0.52282	0.000501
628	C	0.777779	0.555492	0.675916
629	N	0.803254	0.530026	0.687583
630	C	0.783447	0.97783	0.690819
631	H	0.70077	0.536486	0.990627
632	C	0.82049	0.96338	0.710298
633	O	0.799494	0.92956	0.748003
634	H	0.856501	0.997767	0.720959
635	H	0.831983	0.945034	0.68482
636	H	0.793328	0.948468	0.771964
637	C	0.554877	0.784789	0.680295
638	N	0.528828	0.733365	0.002673
639	C	0.976866	0.701609	0.000488
640	C	0.944206	0.722256	0.675842
641	N	0.969688	0.773199	0.687516
642	C	0.521888	0.805607	0.690696
643	H	0.963194	0.664258	0.990507
644	C	0.536326	0.856977	0.710438
645	O	0.570125	0.86958	0.748133
646	H	0.501938	0.858552	0.721179
647	H	0.554703	0.886967	0.68509
648	H	0.551195	0.844362	0.772001
