data_C360H216N72O72_2018-02-15_10:40:17
#******************************************
#
# CIF file created by Zeo++
# Zeo++ is an open source package to
# analyze microporous materials
#
#*******************************************

_cell_length_a		29.7415   
_cell_length_b		29.7415   
_cell_length_c		29.9948   
_cell_angle_alpha		90   
_cell_angle_beta		90   
_cell_angle_gamma		120   

_symmetry_space_group_name_H-M		'P1'
_symmetry_Int_Tables_number		1
_symmetry_cell_setting		Monoclinic

loop_
_symmetry_equiv_pos_as_xyz
'+x,+y,+z'

loop_
_atom_site_label
_atom_site_type_symbol
_atom_site_fract_x
_atom_site_fract_y
_atom_site_fract_z
1	C	0.110779	0.302177	0.016128
2	C	0.136836	0.357257	0.015229
3	C	0.191509	0.389539	0.016108
4	C	0.220532	0.363484	0.015247
5	C	0.198145	0.308813	0.01615
6	C	0.143065	0.279792	0.015316
7	H	0.259658	0.38549	0.012319
8	H	0.125952	0.240673	0.012353
9	H	0.114835	0.374382	0.012276
10	C	0.389328	0.195531	0.012997
11	C	0.361251	0.140486	0.013038
12	C	0.306304	0.110975	0.012983
13	C	0.279337	0.139053	0.013044
14	C	0.304772	0.194001	0.013002
15	C	0.359818	0.220968	0.013023
16	H	0.239772	0.118587	0.013902
17	H	0.378924	0.260533	0.013888
18	H	0.381714	0.121382	0.013871
19	C	0.22802	0.283164	0.016766
20	N	0.20289	0.23169	0.339349
21	C	0.22381	0.200455	0.337788
22	C	0.277202	0.221691	0.013615
23	N	0.302341	0.272719	0.025258
24	C	0.28164	0.304404	0.027436
25	H	0.200575	0.162989	0.32783
26	C	0.312811	0.351804	0.047238
27	O	0.354239	0.380292	0.028853
28	O	0.316623	0.350575	0.091608
29	C	0.298196	0.380851	0.114315
30	H	0.304038	0.378831	0.149976
31	H	0.256741	0.365396	0.108617
32	H	0.31973	0.42167	0.104306
33	C	0.217156	0.445062	0.016697
34	N	0.268601	0.471408	0.339175
35	C	0.299807	0.023563	0.337558
36	C	0.278608	0.055715	0.013545
37	N	0.227613	0.029818	0.025291
38	C	0.195918	0.477422	0.02746
39	H	0.337291	0.03781	0.327646
40	C	0.148538	0.461096	0.047516
41	O	0.120331	0.47418	0.028848
42	O	0.15068	0.466104	0.091869
43	C	0.118821	0.417752	0.114609
44	H	0.121844	0.425618	0.150308
45	H	0.132134	0.390102	0.10837
46	H	0.077958	0.400386	0.105137
47	C	0.055253	0.272295	0.016752
48	N	0.028906	0.297391	0.339222
49	C	0.476749	0.276452	0.337618
50	C	0.444587	0.2231	0.013608
51	N	0.470468	0.197994	0.025381
52	C	0.022853	0.218724	0.027595
53	H	0.462507	0.299686	0.327681
54	C	0.039186	0.187591	0.047386
55	O	0.026735	0.14689	0.027845
56	O	0.034225	0.183132	0.091657
57	C	0.082921	0.200733	0.114146
58	H	0.075161	0.194561	0.149802
59	H	0.109327	0.242174	0.108743
60	H	0.10171	0.178872	0.103689
61	C	0.110779	0.302177	0.34946
62	C	0.136836	0.357257	0.348563
63	C	0.191509	0.389539	0.34944
64	C	0.220532	0.363484	0.34858
65	C	0.198145	0.308813	0.349484
66	C	0.143065	0.279792	0.34865
67	H	0.259658	0.38549	0.345653
68	H	0.125952	0.240673	0.345686
69	H	0.114835	0.374382	0.34561
70	C	0.389328	0.195531	0.34633
71	C	0.361251	0.140486	0.346373
72	C	0.306304	0.110975	0.346316
73	C	0.279337	0.139053	0.346376
74	C	0.304772	0.194001	0.346336
75	C	0.359818	0.220968	0.346356
76	H	0.239772	0.118587	0.347237
77	H	0.378924	0.260533	0.34722
78	H	0.381714	0.121382	0.347203
79	C	0.22802	0.283164	0.3501
80	N	0.20289	0.23169	0.672679
81	C	0.22381	0.200455	0.671123
82	C	0.277202	0.221691	0.34695
83	N	0.302341	0.272719	0.358592
84	C	0.28164	0.304404	0.360769
85	H	0.200575	0.162989	0.661164
86	C	0.312811	0.351804	0.380572
87	O	0.354239	0.380292	0.362186
88	O	0.316623	0.350575	0.424943
89	C	0.298196	0.380851	0.447647
90	H	0.304038	0.378831	0.48331
91	H	0.256741	0.365396	0.44195
92	H	0.31973	0.42167	0.437639
93	C	0.217156	0.445062	0.35003
94	N	0.268601	0.471408	0.672509
95	C	0.299807	0.023563	0.670892
96	C	0.278608	0.055715	0.34688
97	N	0.227613	0.029818	0.358625
98	C	0.195918	0.477422	0.360792
99	H	0.337291	0.03781	0.660981
100	C	0.148538	0.461096	0.380849
101	O	0.120331	0.47418	0.362183
102	O	0.15068	0.466104	0.425203
103	C	0.118821	0.417752	0.447941
104	H	0.121844	0.425618	0.48364
105	H	0.132134	0.390102	0.441703
106	H	0.077958	0.400386	0.438469
107	C	0.055253	0.272295	0.350087
108	N	0.028906	0.297391	0.672556
109	C	0.476749	0.276452	0.670952
110	C	0.444587	0.2231	0.346943
111	N	0.470468	0.197994	0.358715
112	C	0.022853	0.218724	0.360929
113	H	0.462507	0.299686	0.661014
114	C	0.039186	0.187591	0.380719
115	O	0.026735	0.14689	0.361179
116	O	0.034225	0.183132	0.42499
117	C	0.082921	0.200733	0.447481
118	H	0.075161	0.194561	0.483137
119	H	0.109327	0.242174	0.442076
120	H	0.10171	0.178872	0.437022
121	C	0.110779	0.302177	0.682795
122	C	0.136836	0.357257	0.681898
123	C	0.191509	0.389539	0.682775
124	C	0.220532	0.363484	0.681914
125	C	0.198145	0.308813	0.682818
126	C	0.143065	0.279792	0.681984
127	H	0.259658	0.38549	0.678987
128	H	0.125952	0.240673	0.679021
129	H	0.114835	0.374382	0.678944
130	C	0.389328	0.195531	0.679664
131	C	0.361251	0.140486	0.679704
132	C	0.306304	0.110975	0.679651
133	C	0.279337	0.139053	0.679711
134	C	0.304772	0.194001	0.679671
135	C	0.359818	0.220968	0.679691
136	H	0.239772	0.118587	0.680571
137	H	0.378924	0.260533	0.680554
138	H	0.381714	0.121382	0.680537
139	C	0.22802	0.283164	0.683431
140	N	0.20289	0.23169	0.006014
141	C	0.22381	0.200455	0.004455
142	C	0.277202	0.221691	0.680281
143	N	0.302341	0.272719	0.691926
144	C	0.28164	0.304404	0.694103
145	H	0.200575	0.162989	0.994498
146	C	0.312811	0.351804	0.713907
147	O	0.354239	0.380292	0.69552
148	O	0.316623	0.350575	0.758274
149	C	0.298196	0.380851	0.780981
150	H	0.304038	0.378831	0.816644
151	H	0.256741	0.365396	0.775284
152	H	0.31973	0.42167	0.770973
153	C	0.217156	0.445062	0.683365
154	N	0.268601	0.471408	0.005843
155	C	0.299807	0.023563	0.004226
156	C	0.278608	0.055715	0.680214
157	N	0.227613	0.029818	0.691959
158	C	0.195918	0.477422	0.694126
159	H	0.337291	0.03781	0.994312
160	C	0.148538	0.461096	0.714183
161	O	0.120331	0.47418	0.695513
162	O	0.15068	0.466104	0.758534
163	C	0.118821	0.417752	0.781275
164	H	0.121844	0.425618	0.816974
165	H	0.132134	0.390102	0.775037
166	H	0.077958	0.400386	0.771803
167	C	0.055253	0.272295	0.683418
168	N	0.028906	0.297391	0.005889
169	C	0.476749	0.276452	0.004284
170	C	0.444587	0.2231	0.680274
171	N	0.470468	0.197994	0.692049
172	C	0.022853	0.218724	0.694263
173	H	0.462507	0.299686	0.994348
174	C	0.039186	0.187591	0.714053
175	O	0.026735	0.14689	0.694513
176	O	0.034225	0.183132	0.758324
177	C	0.082921	0.200733	0.780815
178	H	0.075161	0.194561	0.816468
179	H	0.109327	0.242174	0.775411
180	H	0.10171	0.178872	0.770356
181	C	0.110778	0.802178	0.016128
182	C	0.136836	0.857258	0.015229
183	C	0.19151	0.889541	0.016108
184	C	0.220532	0.863486	0.015247
185	C	0.198144	0.808813	0.01615
186	C	0.143064	0.779791	0.015316
187	H	0.259658	0.885491	0.012319
188	H	0.125951	0.740672	0.012353
189	H	0.114835	0.874384	0.012276
190	C	0.389328	0.695531	0.012997
191	C	0.36125	0.640485	0.013038
192	C	0.306303	0.610974	0.012983
193	C	0.279336	0.639052	0.013044
194	C	0.304772	0.694001	0.013002
195	C	0.359818	0.720968	0.013023
196	H	0.239772	0.618588	0.013902
197	H	0.378924	0.760534	0.013888
198	H	0.381714	0.621383	0.013871
199	C	0.228019	0.783161	0.016766
200	N	0.202891	0.731692	0.339349
201	C	0.223808	0.700453	0.337788
202	C	0.277201	0.721691	0.013615
203	N	0.30234	0.772718	0.025258
204	C	0.281641	0.804406	0.027436
205	H	0.200574	0.662988	0.32783
206	C	0.31281	0.851803	0.047238
207	O	0.354239	0.880293	0.028853
208	O	0.316622	0.850576	0.091608
209	C	0.298196	0.880852	0.114315
210	H	0.304037	0.878829	0.149976
211	H	0.25674	0.865396	0.108617
212	H	0.319731	0.921672	0.104306
213	C	0.217156	0.945064	0.016697
214	N	0.268599	0.971406	0.339175
215	C	0.299806	0.523561	0.337558
216	C	0.278608	0.555715	0.013545
217	N	0.227613	0.529819	0.025291
218	C	0.195919	0.977424	0.02746
219	H	0.337291	0.53781	0.327646
220	C	0.148538	0.961098	0.047516
221	O	0.120331	0.974178	0.028848
222	O	0.150679	0.966103	0.091869
223	C	0.118822	0.917755	0.114609
224	H	0.121842	0.925617	0.150308
225	H	0.132132	0.8901	0.10837
226	H	0.077957	0.900384	0.105137
227	C	0.055251	0.772294	0.016752
228	N	0.028904	0.797391	0.339222
229	C	0.476747	0.776453	0.337618
230	C	0.444587	0.7231	0.013608
231	N	0.470468	0.697996	0.025381
232	C	0.022851	0.718724	0.027595
233	H	0.462506	0.799685	0.327681
234	C	0.039185	0.687591	0.047386
235	O	0.026735	0.646891	0.027845
236	O	0.034225	0.683134	0.091657
237	C	0.08292	0.700733	0.114146
238	H	0.07516	0.69456	0.149802
239	H	0.109326	0.742174	0.108743
240	H	0.101709	0.678871	0.103689
241	C	0.110778	0.802178	0.34946
242	C	0.136836	0.857258	0.348563
243	C	0.19151	0.889541	0.34944
244	C	0.220532	0.863486	0.34858
245	C	0.198144	0.808813	0.349484
246	C	0.143064	0.779791	0.34865
247	H	0.259658	0.885491	0.345653
248	H	0.125951	0.740672	0.345686
249	H	0.114835	0.874384	0.34561
250	C	0.389328	0.695531	0.34633
251	C	0.36125	0.640485	0.346373
252	C	0.306303	0.610974	0.346316
253	C	0.279336	0.639052	0.346376
254	C	0.304772	0.694001	0.346336
255	C	0.359818	0.720968	0.346356
256	H	0.239772	0.618588	0.347237
257	H	0.378924	0.760534	0.34722
258	H	0.381714	0.621383	0.347203
259	C	0.228019	0.783161	0.3501
260	N	0.202891	0.731692	0.672679
261	C	0.223808	0.700453	0.671123
262	C	0.277201	0.721691	0.34695
263	N	0.30234	0.772718	0.358592
264	C	0.281641	0.804406	0.360769
265	H	0.200574	0.662988	0.661164
266	C	0.31281	0.851803	0.380572
267	O	0.354239	0.880293	0.362186
268	O	0.316622	0.850576	0.424943
269	C	0.298196	0.880852	0.447647
270	H	0.304037	0.878829	0.48331
271	H	0.25674	0.865396	0.44195
272	H	0.319731	0.921672	0.437639
273	C	0.217156	0.945064	0.35003
274	N	0.268599	0.971406	0.672509
275	C	0.299806	0.523561	0.670892
276	C	0.278608	0.555715	0.34688
277	N	0.227613	0.529819	0.358625
278	C	0.195919	0.977424	0.360792
279	H	0.337291	0.53781	0.660981
280	C	0.148538	0.961098	0.380849
281	O	0.120331	0.974178	0.362183
282	O	0.150679	0.966103	0.425203
283	C	0.118822	0.917755	0.447944
284	H	0.121842	0.925617	0.48364
285	H	0.132132	0.8901	0.441703
286	H	0.077957	0.900384	0.438469
287	C	0.055251	0.772294	0.350087
288	N	0.028904	0.797391	0.672556
289	C	0.476747	0.776453	0.670952
290	C	0.444587	0.7231	0.346943
291	N	0.470468	0.697996	0.358715
292	C	0.022851	0.718724	0.360929
293	H	0.462506	0.799685	0.661014
294	C	0.039185	0.687591	0.380719
295	O	0.026735	0.646891	0.361179
296	O	0.034225	0.683134	0.42499
297	C	0.08292	0.700733	0.447481
298	H	0.07516	0.69456	0.483137
299	H	0.109326	0.742174	0.442076
300	H	0.101709	0.678871	0.437022
301	C	0.110778	0.802178	0.682795
302	C	0.136836	0.857258	0.681898
303	C	0.19151	0.889541	0.682775
304	C	0.220532	0.863486	0.681914
305	C	0.198144	0.808813	0.682818
306	C	0.143064	0.779791	0.681984
307	H	0.259658	0.885491	0.678987
308	H	0.125951	0.740672	0.679021
309	H	0.114835	0.874384	0.678944
310	C	0.389328	0.695531	0.679664
311	C	0.36125	0.640485	0.679704
312	C	0.306303	0.610974	0.679651
313	C	0.279336	0.639052	0.679711
314	C	0.304772	0.694001	0.679671
315	C	0.359818	0.720968	0.679691
316	H	0.239772	0.618588	0.680571
317	H	0.378924	0.760534	0.680554
318	H	0.381714	0.621383	0.680537
319	C	0.228019	0.783161	0.683431
320	N	0.202891	0.731692	0.006014
321	C	0.223808	0.700453	0.004455
322	C	0.277201	0.721691	0.680281
323	N	0.30234	0.772718	0.691926
324	C	0.281641	0.804406	0.694103
325	H	0.200574	0.662988	0.994498
326	C	0.31281	0.851803	0.713907
327	O	0.354239	0.880293	0.69552
328	O	0.316622	0.850576	0.758274
329	C	0.298196	0.880852	0.780981
330	H	0.304037	0.878829	0.816644
331	H	0.25674	0.865396	0.775284
332	H	0.319731	0.921672	0.770973
333	C	0.217156	0.945064	0.683365
334	N	0.268599	0.971406	0.005843
335	C	0.299806	0.523561	0.004226
336	C	0.278608	0.555715	0.680214
337	N	0.227613	0.529819	0.691959
338	C	0.195919	0.977424	0.694126
339	H	0.337291	0.53781	0.994312
340	C	0.148538	0.961098	0.714183
341	O	0.120331	0.974178	0.695513
342	O	0.150679	0.966103	0.758534
343	C	0.118822	0.917755	0.781275
344	H	0.121842	0.925617	0.816974
345	H	0.132132	0.8901	0.775037
346	H	0.077957	0.900384	0.771803
347	C	0.055251	0.772294	0.683418
348	N	0.028904	0.797391	0.005889
349	C	0.476747	0.776453	0.004284
350	C	0.444587	0.7231	0.680274
351	N	0.470468	0.697996	0.692049
352	C	0.022851	0.718724	0.694263
353	H	0.462506	0.799685	0.994348
354	C	0.039185	0.687591	0.714053
355	O	0.026735	0.646891	0.694513
356	O	0.034225	0.683134	0.758324
357	C	0.08292	0.700733	0.780815
358	H	0.07516	0.69456	0.816468
359	H	0.109326	0.742174	0.775411
360	H	0.101709	0.678871	0.770356
361	C	0.610779	0.302177	0.016128
362	C	0.636836	0.357257	0.015229
363	C	0.691509	0.389539	0.016108
364	C	0.720531	0.363484	0.015247
365	C	0.698145	0.308813	0.01615
366	C	0.643064	0.279792	0.015316
367	H	0.759659	0.38549	0.012319
368	H	0.625953	0.240673	0.012353
369	H	0.614835	0.374382	0.012276
370	C	0.889329	0.195531	0.012997
371	C	0.861252	0.140486	0.013038
372	C	0.806303	0.110975	0.012983
373	C	0.779336	0.139053	0.013044
374	C	0.804772	0.194001	0.013002
375	C	0.859817	0.220968	0.013023
376	H	0.739774	0.118587	0.013902
377	H	0.878924	0.260533	0.013888
378	H	0.881712	0.121382	0.013871
379	C	0.728021	0.283164	0.016766
380	N	0.70289	0.23169	0.339349
381	C	0.72381	0.200455	0.337788
382	C	0.777204	0.221691	0.013615
383	N	0.802341	0.272719	0.025258
384	C	0.781639	0.304404	0.027436
385	H	0.700575	0.162989	0.32783
386	C	0.81281	0.351804	0.047238
387	O	0.854238	0.380292	0.028853
388	O	0.816623	0.350575	0.091608
389	C	0.798195	0.380851	0.114315
390	H	0.804037	0.378831	0.149976
391	H	0.756741	0.365396	0.108617
392	H	0.819731	0.42167	0.104306
393	C	0.717155	0.445062	0.016697
394	N	0.768602	0.471408	0.339175
395	C	0.799808	0.023563	0.337558
396	C	0.77861	0.055715	0.013545
397	N	0.727613	0.029818	0.025291
398	C	0.69592	0.477422	0.02746
399	H	0.83729	0.03781	0.327646
400	C	0.648539	0.461096	0.047516
401	O	0.620331	0.47418	0.028848
402	O	0.65068	0.466104	0.091869
403	C	0.618821	0.417752	0.114609
404	H	0.621843	0.425618	0.150308
405	H	0.632133	0.390102	0.10837
406	H	0.577957	0.400386	0.105137
407	C	0.555252	0.272295	0.016752
408	N	0.528905	0.297391	0.339222
409	C	0.976747	0.276452	0.337618
410	C	0.944588	0.2231	0.013608
411	N	0.970469	0.197994	0.025381
412	C	0.522855	0.218724	0.027595
413	H	0.962505	0.299686	0.327681
414	C	0.539186	0.187591	0.047386
415	O	0.526734	0.14689	0.027845
416	O	0.534223	0.183132	0.091657
417	C	0.582921	0.200733	0.114146
418	H	0.575161	0.194561	0.149802
419	H	0.609327	0.242174	0.108743
420	H	0.60171	0.178872	0.103689
421	C	0.610779	0.302177	0.34946
422	C	0.636836	0.357257	0.348563
423	C	0.691509	0.389539	0.34944
424	C	0.720531	0.363484	0.34858
425	C	0.698145	0.308813	0.349484
426	C	0.643064	0.279792	0.34865
427	H	0.759659	0.38549	0.345653
428	H	0.625953	0.240673	0.345686
429	H	0.614835	0.374382	0.34561
430	C	0.889329	0.195531	0.34633
431	C	0.861252	0.140486	0.346373
432	C	0.806303	0.110975	0.346316
433	C	0.779336	0.139053	0.346376
434	C	0.804772	0.194001	0.346336
435	C	0.859817	0.220968	0.346356
436	H	0.739774	0.118587	0.347237
437	H	0.878924	0.260533	0.34722
438	H	0.881712	0.121382	0.347203
439	C	0.728021	0.283164	0.3501
440	N	0.70289	0.23169	0.672679
441	C	0.72381	0.200455	0.671123
442	C	0.777204	0.221691	0.34695
443	N	0.802341	0.272719	0.358592
444	C	0.781639	0.304404	0.360769
445	H	0.700575	0.162989	0.661164
446	C	0.81281	0.351804	0.380572
447	O	0.854238	0.380292	0.362186
448	O	0.816623	0.350575	0.424943
449	C	0.798195	0.380851	0.447647
450	H	0.804037	0.378831	0.48331
451	H	0.756741	0.365396	0.44195
452	H	0.819731	0.42167	0.437639
453	C	0.717155	0.445062	0.35003
454	N	0.768602	0.471408	0.672509
455	C	0.799808	0.023563	0.670892
456	C	0.77861	0.055715	0.34688
457	N	0.727613	0.029818	0.358625
458	C	0.69592	0.477422	0.360792
459	H	0.83729	0.03781	0.660981
460	C	0.648539	0.461096	0.380849
461	O	0.620331	0.47418	0.362183
462	O	0.65068	0.466104	0.425203
463	C	0.618821	0.417752	0.447941
464	H	0.621843	0.425618	0.48364
465	H	0.632133	0.390102	0.441703
466	H	0.577957	0.400386	0.438469
467	C	0.555252	0.272295	0.350087
468	N	0.528905	0.297391	0.672556
469	C	0.976747	0.276452	0.670952
470	C	0.944588	0.2231	0.346943
471	N	0.970469	0.197994	0.358715
472	C	0.522855	0.218724	0.360929
473	H	0.962505	0.299686	0.661014
474	C	0.539186	0.187591	0.380719
475	O	0.526734	0.14689	0.361179
476	O	0.534223	0.183132	0.42499
477	C	0.582921	0.200733	0.447481
478	H	0.575161	0.194561	0.483137
479	H	0.609327	0.242174	0.442076
480	H	0.60171	0.178872	0.437022
481	C	0.610779	0.302177	0.682795
482	C	0.636836	0.357257	0.681898
483	C	0.691509	0.389539	0.682775
484	C	0.720531	0.363484	0.681914
485	C	0.698145	0.308813	0.682818
486	C	0.643064	0.279792	0.681984
487	H	0.759659	0.38549	0.678987
488	H	0.625953	0.240673	0.679021
489	H	0.614835	0.374382	0.678944
490	C	0.889329	0.195531	0.679664
491	C	0.861252	0.140486	0.679704
492	C	0.806303	0.110975	0.679651
493	C	0.779336	0.139053	0.679711
494	C	0.804772	0.194001	0.679671
495	C	0.859817	0.220968	0.679691
496	H	0.739774	0.118587	0.680571
497	H	0.878924	0.260533	0.680554
498	H	0.881712	0.121382	0.680537
499	C	0.728021	0.283164	0.683431
500	N	0.70289	0.23169	0.006014
501	C	0.72381	0.200455	0.004455
502	C	0.777204	0.221691	0.680281
503	N	0.802341	0.272719	0.691926
504	C	0.781639	0.304404	0.694103
505	H	0.700575	0.162989	0.994498
506	C	0.81281	0.351804	0.713907
507	O	0.854238	0.380292	0.69552
508	O	0.816623	0.350575	0.758274
509	C	0.798195	0.380851	0.780981
510	H	0.804037	0.378831	0.816644
511	H	0.756741	0.365396	0.775284
512	H	0.819731	0.42167	0.770973
513	C	0.717155	0.445062	0.683365
514	N	0.768602	0.471408	0.005843
515	C	0.799808	0.023563	0.004226
516	C	0.77861	0.055715	0.680214
517	N	0.727613	0.029818	0.691959
518	C	0.69592	0.477422	0.694126
519	H	0.83729	0.03781	0.994312
520	C	0.648539	0.461096	0.714183
521	O	0.620331	0.47418	0.695513
522	O	0.65068	0.466104	0.758534
523	C	0.618821	0.417752	0.781275
524	H	0.621843	0.425618	0.816974
525	H	0.632133	0.390102	0.775037
526	H	0.577957	0.400386	0.771803
527	C	0.555252	0.272295	0.683418
528	N	0.528905	0.297391	0.005889
529	C	0.976747	0.276452	0.004284
530	C	0.944588	0.2231	0.680274
531	N	0.970469	0.197994	0.692049
532	C	0.522855	0.218724	0.694263
533	H	0.962505	0.299686	0.994348
534	C	0.539186	0.187591	0.714053
535	O	0.526734	0.14689	0.694513
536	O	0.534223	0.183132	0.758324
537	C	0.582921	0.200733	0.780815
538	H	0.575161	0.194561	0.816468
539	H	0.609327	0.242174	0.775411
540	H	0.60171	0.178872	0.770356
541	C	0.610778	0.802178	0.016128
542	C	0.636836	0.857258	0.015229
543	C	0.69151	0.889541	0.016108
544	C	0.720532	0.863486	0.015247
545	C	0.698144	0.808813	0.01615
546	C	0.643064	0.779791	0.015316
547	H	0.759658	0.885491	0.012319
548	H	0.625951	0.740672	0.012353
549	H	0.614835	0.874384	0.012276
550	C	0.889327	0.695531	0.012997
551	C	0.86125	0.640485	0.013038
552	C	0.806302	0.610974	0.012983
553	C	0.779337	0.639052	0.013044
554	C	0.80477	0.694001	0.013002
555	C	0.859819	0.720968	0.013023
556	H	0.739772	0.618588	0.013902
557	H	0.878923	0.760534	0.013888
558	H	0.881714	0.621383	0.013871
559	C	0.728018	0.783161	0.016766
560	N	0.702889	0.731692	0.339349
561	C	0.723808	0.700453	0.337788
562	C	0.777202	0.721691	0.013615
563	N	0.802339	0.772718	0.025258
564	C	0.781641	0.804406	0.027436
565	H	0.700573	0.662988	0.32783
566	C	0.812811	0.851803	0.047238
567	O	0.85424	0.880293	0.028853
568	O	0.816622	0.850576	0.091608
569	C	0.798197	0.880852	0.114315
570	H	0.804035	0.878829	0.149976
571	H	0.756739	0.865396	0.108617
572	H	0.81973	0.921672	0.104306
573	C	0.717156	0.945064	0.016697
574	N	0.768599	0.971406	0.339175
575	C	0.799806	0.523561	0.337558
576	C	0.778608	0.555715	0.013545
577	N	0.727612	0.529819	0.025291
578	C	0.695918	0.977424	0.02746
579	H	0.837291	0.53781	0.327646
580	C	0.648538	0.961098	0.047516
581	O	0.620329	0.974178	0.028848
582	O	0.650678	0.966103	0.091869
583	C	0.618821	0.917755	0.114609
584	H	0.621842	0.925617	0.150308
585	H	0.632132	0.8901	0.10837
586	H	0.577956	0.900384	0.105137
587	C	0.555251	0.772294	0.016752
588	N	0.528905	0.797391	0.339222
589	C	0.976746	0.776453	0.337618
590	C	0.944586	0.7231	0.013608
591	N	0.970468	0.697996	0.025381
592	C	0.522852	0.718724	0.027595
593	H	0.962506	0.799685	0.327681
594	C	0.539185	0.687591	0.047386
595	O	0.526735	0.646891	0.027845
596	O	0.534225	0.683134	0.091657
597	C	0.58292	0.700733	0.114146
598	H	0.57516	0.69456	0.149802
599	H	0.609326	0.742174	0.108743
600	H	0.601709	0.678871	0.103689
601	C	0.610778	0.802178	0.34946
602	C	0.636836	0.857258	0.348563
603	C	0.69151	0.889541	0.34944
604	C	0.720532	0.863486	0.34858
605	C	0.698144	0.808813	0.349484
606	C	0.643064	0.779791	0.34865
607	H	0.759658	0.885491	0.345653
608	H	0.625951	0.740672	0.345686
609	H	0.614835	0.874384	0.34561
610	C	0.889327	0.695531	0.34633
611	C	0.86125	0.640485	0.346373
612	C	0.806302	0.610974	0.346316
613	C	0.779337	0.639052	0.346376
614	C	0.80477	0.694001	0.346336
615	C	0.859819	0.720968	0.346356
616	H	0.739772	0.618588	0.347237
617	H	0.878923	0.760534	0.34722
618	H	0.881714	0.621383	0.347203
619	C	0.728018	0.783161	0.3501
620	N	0.702889	0.731692	0.672679
621	C	0.723808	0.700453	0.671123
622	C	0.777202	0.721691	0.34695
623	N	0.802339	0.772718	0.358592
624	C	0.781641	0.804406	0.360769
625	H	0.700573	0.662988	0.661164
626	C	0.812811	0.851803	0.380572
627	O	0.85424	0.880293	0.362186
628	O	0.816622	0.850576	0.424943
629	C	0.798197	0.880852	0.447647
630	H	0.804035	0.878829	0.48331
631	H	0.756739	0.865396	0.44195
632	H	0.81973	0.921672	0.437639
633	C	0.717156	0.945064	0.35003
634	N	0.768599	0.971406	0.672509
635	C	0.799806	0.523561	0.670892
636	C	0.778608	0.555715	0.34688
637	N	0.727612	0.529819	0.358625
638	C	0.695918	0.977424	0.360792
639	H	0.837291	0.53781	0.660981
640	C	0.648538	0.961098	0.380849
641	O	0.620329	0.974178	0.362183
642	O	0.650678	0.966103	0.425203
643	C	0.618821	0.917755	0.447944
644	H	0.621842	0.925617	0.48364
645	H	0.632132	0.8901	0.441703
646	H	0.577956	0.900384	0.438469
647	C	0.555251	0.772294	0.350087
648	N	0.528905	0.797391	0.672556
649	C	0.976746	0.776453	0.670952
650	C	0.944586	0.7231	0.346943
651	N	0.970468	0.697996	0.358715
652	C	0.522852	0.718724	0.360929
653	H	0.962506	0.799685	0.661014
654	C	0.539185	0.687591	0.380719
655	O	0.526735	0.646891	0.361179
656	O	0.534225	0.683134	0.42499
657	C	0.58292	0.700733	0.447481
658	H	0.57516	0.69456	0.483137
659	H	0.609326	0.742174	0.442076
660	H	0.601709	0.678871	0.437022
661	C	0.610778	0.802178	0.682795
662	C	0.636836	0.857258	0.681898
663	C	0.69151	0.889541	0.682775
664	C	0.720532	0.863486	0.681914
665	C	0.698144	0.808813	0.682818
666	C	0.643064	0.779791	0.681984
667	H	0.759658	0.885491	0.678987
668	H	0.625951	0.740672	0.679021
669	H	0.614835	0.874384	0.678944
670	C	0.889327	0.695531	0.679664
671	C	0.86125	0.640485	0.679704
672	C	0.806302	0.610974	0.679651
673	C	0.779337	0.639052	0.679711
674	C	0.80477	0.694001	0.679671
675	C	0.859819	0.720968	0.679691
676	H	0.739772	0.618588	0.680571
677	H	0.878923	0.760534	0.680554
678	H	0.881714	0.621383	0.680537
679	C	0.728018	0.783161	0.683431
680	N	0.702889	0.731692	0.006014
681	C	0.723808	0.700453	0.004455
682	C	0.777202	0.721691	0.680281
683	N	0.802339	0.772718	0.691926
684	C	0.781641	0.804406	0.694103
685	H	0.700573	0.662988	0.994498
686	C	0.812811	0.851803	0.713907
687	O	0.85424	0.880293	0.69552
688	O	0.816622	0.850576	0.758274
689	C	0.798197	0.880852	0.780981
690	H	0.804035	0.878829	0.816644
691	H	0.756739	0.865396	0.775284
692	H	0.81973	0.921672	0.770973
693	C	0.717156	0.945064	0.683365
694	N	0.768599	0.971406	0.005843
695	C	0.799806	0.523561	0.004226
696	C	0.778608	0.555715	0.680214
697	N	0.727612	0.529819	0.691959
698	C	0.695918	0.977424	0.694126
699	H	0.837291	0.53781	0.994312
700	C	0.648538	0.961098	0.714183
701	O	0.620329	0.974178	0.695513
702	O	0.650678	0.966103	0.758534
703	C	0.618821	0.917755	0.781275
704	H	0.621842	0.925617	0.816974
705	H	0.632132	0.8901	0.775037
706	H	0.577956	0.900384	0.771803
707	C	0.555251	0.772294	0.683418
708	N	0.528905	0.797391	0.005889
709	C	0.976746	0.776453	0.004284
710	C	0.944586	0.7231	0.680274
711	N	0.970468	0.697996	0.692049
712	C	0.522852	0.718724	0.694263
713	H	0.962506	0.799685	0.994348
714	C	0.539185	0.687591	0.714053
715	O	0.526735	0.646891	0.694513
716	O	0.534225	0.683134	0.758324
717	C	0.58292	0.700733	0.780815
718	H	0.57516	0.69456	0.816468
719	H	0.609326	0.742174	0.775411
720	H	0.601709	0.678871	0.770356
