data_C171H81N45_2018-02-15_10:42:24
#******************************************
#
# CIF file created by Zeo++
# Zeo++ is an open source package to
# analyze microporous materials
#
#*******************************************

_cell_length_a		29.3408   
_cell_length_b		29.3408   
_cell_length_c		29.8904   
_cell_angle_alpha		90   
_cell_angle_beta		90   
_cell_angle_gamma		120   

_symmetry_space_group_name_H-M		'P1'
_symmetry_Int_Tables_number		1
_symmetry_cell_setting		Monoclinic

loop_
_symmetry_equiv_pos_as_xyz
'+x,+y,+z'

loop_
_atom_site_label
_atom_site_type_symbol
_atom_site_fract_x
_atom_site_fract_y
_atom_site_fract_z
1	C	0.028243	0.514582	0.29526
2	C	0.028243	0.514582	0.628593
3	C	0.028243	0.514582	0.961927
4	N	0.030876	0.515897	0.041339
5	H	0.046242	0.523583	0.264682
6	N	0.030876	0.515897	0.374672
7	H	0.046242	0.523583	0.598018
8	N	0.030876	0.515897	0.708006
9	H	0.046242	0.523583	0.931349
10	C	0.363265	0.722867	0.002096
11	N	0.388752	0.694835	0.002098
12	C	0.363264	0.641316	0.002097
13	N	0.309747	0.61583	0.002098
14	C	0.281715	0.641316	0.002095
15	N	0.309746	0.694835	0.002097
16	C	0.391379	0.613205	0.002175
17	C	0.4472	0.640041	0.002227
18	C	0.474977	0.612426	0.002229
19	C	0.447636	0.556948	0.002124
20	C	0.392155	0.529604	0.00223
21	C	0.36454	0.55738	0.002228
22	C	0.391378	0.779093	0.002175
23	C	0.4472	0.808078	0.002228
24	C	0.474977	0.863469	0.002232
25	C	0.447636	0.891608	0.002125
26	C	0.392155	0.863469	0.00223
27	C	0.364541	0.808078	0.002227
28	C	0.225489	0.613205	0.002175
29	C	0.196505	0.640041	0.002227
30	C	0.141112	0.612426	0.002231
31	C	0.112975	0.556948	0.002125
32	C	0.141112	0.529604	0.002231
33	C	0.196504	0.55738	0.002228
34	H	0.515267	0.883052	0.002205
35	H	0.468562	0.789211	0.002222
36	H	0.371448	0.883052	0.002205
37	H	0.324313	0.789211	0.002222
38	H	0.21537	0.680269	0.002222
39	H	0.121527	0.63313	0.002205
40	H	0.215369	0.536019	0.002221
41	H	0.121527	0.489313	0.002204
42	H	0.324313	0.536019	0.002223
43	H	0.371448	0.489313	0.002205
44	H	0.515267	0.63313	0.002205
45	H	0.468563	0.680269	0.002223
46	C	0.642233	0.280805	0.00112
47	N	0.616744	0.30883	0.001133
48	C	0.642234	0.362346	0.00112
49	N	0.695748	0.387835	0.00113
50	C	0.723776	0.362346	0.00112
51	N	0.69575	0.30883	0.00113
52	C	0.614126	0.390455	0.001194
53	C	0.558305	0.36361	0.001324
54	C	0.530531	0.391221	0.001759
55	C	0.557883	0.446695	0.00199
56	C	0.613356	0.474047	0.001752
57	C	0.640968	0.446274	0.001327
58	C	0.614123	0.224586	0.001194
59	C	0.558304	0.195611	0.001331
60	C	0.53053	0.140227	0.001759
61	C	0.557882	0.112104	0.001991
62	C	0.613357	0.140227	0.001759
63	C	0.640971	0.195611	0.001327
64	C	0.779994	0.390455	0.001194
65	C	0.808969	0.36361	0.001327
66	C	0.864351	0.39122	0.001759
67	C	0.892474	0.446695	0.001993
68	C	0.864351	0.474047	0.001749
69	C	0.80897	0.446274	0.001324
70	H	0.490244	0.120634	0.002197
71	H	0.53694	0.214475	0.001341
72	H	0.634051	0.120634	0.0022
73	H	0.681196	0.214475	0.001344
74	H	0.790103	0.323383	0.001341
75	H	0.883947	0.370528	0.002201
76	H	0.790107	0.46764	0.001341
77	H	0.883946	0.514334	0.002202
78	H	0.681197	0.46764	0.001341
79	H	0.634052	0.514334	0.002198
80	H	0.490245	0.370529	0.002201
81	H	0.53694	0.323383	0.001344
82	C	0.530103	0.47448	0.003732
83	N	0.516666	0.487915	0.297716
84	C	0.490002	0.514582	0.295258
85	C	0.47534	0.529242	0.001947
86	N	0.488685	0.515897	0.041337
87	C	0.51537	0.489206	0.044022
88	H	0.481003	0.523583	0.264681
89	C	0.525929	0.478651	0.083666
90	N	0.53539	0.469191	0.118549
91	C	0.530101	0.056541	0.003733
92	N	0.516664	0.029667	0.297716
93	C	0.49	0.976339	0.295259
94	C	0.475339	0.947015	0.001948
95	N	0.488685	0.973706	0.041338
96	C	0.515374	0.02708	0.044022
97	H	0.480999	0.958338	0.264682
98	C	0.525932	0.048196	0.083667
99	N	0.535392	0.067117	0.118549
100	C	0.948039	0.47448	0.003735
101	N	0.974913	0.487915	0.297717
102	C	0.057565	0.529242	0.001948
103	C	0.977497	0.489206	0.044024
104	C	0.956385	0.478651	0.083669
105	N	0.937463	0.469191	0.118551
106	C	0.363265	0.722867	0.335429
107	N	0.388752	0.694835	0.335432
108	C	0.363264	0.641316	0.335429
109	N	0.309747	0.61583	0.335432
110	C	0.281715	0.641316	0.335429
111	N	0.309746	0.694835	0.335432
112	C	0.391379	0.613205	0.335509
113	C	0.4472	0.640041	0.335562
114	C	0.474977	0.612426	0.335562
115	C	0.447636	0.556948	0.335459
116	C	0.392155	0.529604	0.335562
117	C	0.36454	0.55738	0.335562
118	C	0.391378	0.779093	0.335509
119	C	0.4472	0.808078	0.335562
120	C	0.474977	0.863469	0.335566
121	C	0.447636	0.891608	0.335459
122	C	0.392155	0.863469	0.335562
123	C	0.364541	0.808078	0.335559
124	C	0.225489	0.613205	0.335509
125	C	0.196505	0.640041	0.335559
126	C	0.141112	0.612426	0.335566
127	C	0.112975	0.556948	0.335459
128	C	0.141112	0.529604	0.335566
129	C	0.196504	0.55738	0.335562
130	H	0.515267	0.883052	0.335539
131	H	0.468562	0.789211	0.335556
132	H	0.371448	0.883052	0.335539
133	H	0.324313	0.789211	0.335556
134	H	0.21537	0.680269	0.335556
135	H	0.121527	0.63313	0.335539
136	H	0.215369	0.536019	0.335556
137	H	0.121527	0.489313	0.335539
138	H	0.324313	0.536019	0.335556
139	H	0.371448	0.489313	0.335539
140	H	0.515267	0.63313	0.335539
141	H	0.468563	0.680269	0.335556
142	C	0.642233	0.280805	0.334453
143	N	0.616744	0.30883	0.334466
144	C	0.642234	0.362346	0.334454
145	N	0.695748	0.387835	0.334464
146	C	0.723776	0.362346	0.334453
147	N	0.69575	0.30883	0.334465
148	C	0.614126	0.390455	0.334527
149	C	0.558305	0.36361	0.334659
150	C	0.530531	0.391221	0.335094
151	C	0.557883	0.446695	0.335325
152	C	0.613356	0.474047	0.335087
153	C	0.640968	0.446274	0.334659
154	C	0.614123	0.224586	0.334528
155	C	0.558304	0.195611	0.334662
156	C	0.53053	0.140227	0.335091
157	C	0.557882	0.112104	0.335325
158	C	0.613357	0.140227	0.335094
159	C	0.640971	0.195611	0.334659
160	C	0.779994	0.390455	0.334525
161	C	0.808969	0.36361	0.334659
162	C	0.864351	0.39122	0.335094
163	C	0.892474	0.446695	0.335328
164	C	0.864351	0.474047	0.335081
165	C	0.80897	0.446274	0.334656
166	H	0.490244	0.120634	0.335529
167	H	0.53694	0.214475	0.334672
168	H	0.634051	0.120634	0.335532
169	H	0.681196	0.214475	0.334676
170	H	0.790103	0.323383	0.334672
171	H	0.883947	0.370528	0.335536
172	H	0.790107	0.46764	0.334676
173	H	0.883946	0.514334	0.335536
174	H	0.681197	0.46764	0.334676
175	H	0.634052	0.514334	0.335532
176	H	0.490245	0.370529	0.335536
177	H	0.53694	0.323383	0.334676
178	C	0.530103	0.47448	0.337064
179	N	0.516666	0.487915	0.631048
180	C	0.490002	0.514582	0.628593
181	C	0.47534	0.529242	0.335281
182	N	0.488685	0.515897	0.374672
183	C	0.51537	0.489206	0.377355
184	H	0.481003	0.523583	0.598014
185	C	0.525929	0.478651	0.417
186	N	0.53539	0.469191	0.451884
187	C	0.530101	0.056541	0.337068
188	N	0.516664	0.029667	0.631048
189	C	0.49	0.976339	0.628593
190	C	0.475339	0.947015	0.335281
191	N	0.488685	0.973706	0.374672
192	C	0.515374	0.02708	0.377355
193	H	0.480999	0.958338	0.598014
194	C	0.525932	0.048196	0.417
195	N	0.535392	0.067117	0.451884
196	C	0.948039	0.47448	0.337068
197	N	0.974913	0.487915	0.631052
198	C	0.057565	0.529242	0.335281
199	C	0.977497	0.489206	0.377358
200	C	0.956385	0.478651	0.417003
201	N	0.937463	0.469191	0.451884
202	C	0.363265	0.722867	0.668763
203	N	0.388752	0.694835	0.668766
204	C	0.363264	0.641316	0.668763
205	N	0.309747	0.61583	0.668766
206	C	0.281715	0.641316	0.668763
207	N	0.309746	0.694835	0.668763
208	C	0.391379	0.613205	0.668843
209	C	0.4472	0.640041	0.668893
210	C	0.474977	0.612426	0.668897
211	C	0.447636	0.556948	0.668793
212	C	0.392155	0.529604	0.668897
213	C	0.36454	0.55738	0.668897
214	C	0.391378	0.779093	0.668843
215	C	0.4472	0.808078	0.668897
216	C	0.474977	0.863469	0.6689
217	C	0.447636	0.891608	0.668793
218	C	0.392155	0.863469	0.668897
219	C	0.364541	0.808078	0.668893
220	C	0.225489	0.613205	0.668843
221	C	0.196505	0.640041	0.668893
222	C	0.141112	0.612426	0.6689
223	C	0.112975	0.556948	0.668793
224	C	0.141112	0.529604	0.6689
225	C	0.196504	0.55738	0.668897
226	H	0.515267	0.883052	0.668873
227	H	0.468562	0.789211	0.66889
228	H	0.371448	0.883052	0.668873
229	H	0.324313	0.789211	0.66889
230	H	0.21537	0.680269	0.66889
231	H	0.121527	0.63313	0.668873
232	H	0.215369	0.536019	0.66889
233	H	0.121527	0.489313	0.66887
234	H	0.324313	0.536019	0.66889
235	H	0.371448	0.489313	0.668873
236	H	0.515267	0.63313	0.668873
237	H	0.468563	0.680269	0.66889
238	C	0.642233	0.280805	0.667786
239	N	0.616744	0.30883	0.667799
240	C	0.642234	0.362346	0.667786
241	N	0.695748	0.387835	0.667799
242	C	0.723776	0.362346	0.667786
243	N	0.69575	0.30883	0.667799
244	C	0.614126	0.390455	0.667859
245	C	0.558305	0.36361	0.667993
246	C	0.530531	0.391221	0.668425
247	C	0.557883	0.446695	0.668656
248	C	0.613356	0.474047	0.668421
249	C	0.640968	0.446274	0.667993
250	C	0.614123	0.224586	0.667863
251	C	0.558304	0.195611	0.667997
252	C	0.53053	0.140227	0.668425
253	C	0.557882	0.112104	0.668659
254	C	0.613357	0.140227	0.668425
255	C	0.640971	0.195611	0.667993
256	C	0.779994	0.390455	0.667859
257	C	0.808969	0.36361	0.667993
258	C	0.864351	0.39122	0.668428
259	C	0.892474	0.446695	0.668659
260	C	0.864351	0.474047	0.668415
261	C	0.80897	0.446274	0.66799
262	H	0.490244	0.120634	0.668863
263	H	0.53694	0.214475	0.668007
264	H	0.634051	0.120634	0.668866
265	H	0.681196	0.214475	0.66801
266	H	0.790103	0.323383	0.668007
267	H	0.883947	0.370528	0.66887
268	H	0.790107	0.46764	0.668007
269	H	0.883946	0.514334	0.66887
270	H	0.681197	0.46764	0.66801
271	H	0.634052	0.514334	0.668866
272	H	0.490245	0.370529	0.668866
273	H	0.53694	0.323383	0.66801
274	C	0.530103	0.47448	0.670399
275	N	0.516666	0.487915	0.964383
276	C	0.490002	0.514582	0.961927
277	C	0.47534	0.529242	0.668616
278	N	0.488685	0.515897	0.708006
279	C	0.51537	0.489206	0.710689
280	H	0.481003	0.523583	0.931349
281	C	0.525929	0.478651	0.750334
282	N	0.53539	0.469191	0.785215
283	C	0.530101	0.056541	0.670399
284	N	0.516664	0.029667	0.964383
285	C	0.49	0.976339	0.961927
286	C	0.475339	0.947015	0.668616
287	N	0.488685	0.973706	0.708006
288	C	0.515374	0.02708	0.710689
289	H	0.480999	0.958338	0.931349
290	C	0.525932	0.048196	0.750334
291	N	0.535392	0.067117	0.785218
292	C	0.948039	0.47448	0.670402
293	N	0.974913	0.487915	0.964386
294	C	0.057565	0.529242	0.668616
295	C	0.977497	0.489206	0.710693
296	C	0.956385	0.478651	0.750334
297	N	0.937463	0.469191	0.785218
