data_C162H153N27_2018-02-15_10:34:03
#******************************************
#
# CIF file created by Zeo++
# Zeo++ is an open source package to
# analyze microporous materials
#
#*******************************************

_cell_length_a		29.2267   
_cell_length_b		29.2266   
_cell_length_c		30.0196   
_cell_angle_alpha		90   
_cell_angle_beta		90   
_cell_angle_gamma		120   

_symmetry_space_group_name_H-M		'P1'
_symmetry_Int_Tables_number		1
_symmetry_cell_setting		Monoclinic

loop_
_symmetry_equiv_pos_as_xyz
'+x,+y,+z'

loop_
_atom_site_label
_atom_site_type_symbol
_atom_site_fract_x
_atom_site_fract_y
_atom_site_fract_z
1	C	0.358115	0.635768	0.043646
2	C	0.30242	0.610877	0.043798
3	C	0.276985	0.641046	0.043649
4	C	0.307789	0.696741	0.043815
5	C	0.363393	0.722177	0.043666
6	C	0.388284	0.691372	0.04382
7	H	0.289529	0.718846	0.043926
8	H	0.428648	0.709629	0.043927
9	H	0.280314	0.570511	0.043897
10	N	0.384975	0.606851	0.043765
11	H	0.37077	0.579602	0.069154
12	N	0.392312	0.777955	0.043801
13	H	0.419542	0.790985	0.069203
14	N	0.221208	0.614188	0.043766
15	H	0.208163	0.62838	0.069162
16	C	0.642845	0.365396	0.964823
17	C	0.698381	0.388275	0.964589
18	C	0.721875	0.356321	0.964813
19	C	0.689222	0.300787	0.964596
20	C	0.633771	0.277291	0.964826
21	C	0.610891	0.309946	0.964603
22	H	0.70601	0.277339	0.964366
23	H	0.570657	0.293158	0.964379
24	H	0.721828	0.42851	0.964359
25	N	0.617812	0.396105	0.964739
26	H	0.630377	0.420237	0.937234
27	N	0.603063	0.221548	0.964753
28	H	0.578917	0.209975	0.937261
29	N	0.777619	0.381354	0.964726
30	H	0.789184	0.368783	0.937227
31	C	0.420225	0.559477	0.335511
32	C	0.474495	0.593166	0.011113
33	C	0.510276	0.573909	0.014089
34	C	0.49093	0.519087	0.006366
35	C	0.43665	0.485477	0.330334
36	C	0.401754	0.50531	0.328464
37	H	0.42196	0.446055	0.32434
38	H	0.362739	0.479855	0.321683
39	C	0.524195	0.496504	0.006571
40	C	0.51557	0.456189	0.037159
41	C	0.548323	0.433677	0.037091
42	C	0.590316	0.450595	0.006262
43	C	0.598654	0.490724	0.308885
44	C	0.565821	0.513117	0.308791
45	H	0.485679	0.443286	0.060051
46	H	0.54115	0.404694	0.059752
47	H	0.62887	0.504054	0.286308
48	H	0.487945	0.632461	0.016613
49	H	0.572656	0.541808	0.285886
50	N	0.561295	0.608459	0.025495
51	H	0.573184	0.645491	0.031457
52	H	0.586755	0.596947	0.030716
53	C	0.625424	0.427336	0.005965
54	H	0.617058	0.401529	0.034902
55	H	0.666472	0.459232	0.008884
56	C	0.383864	0.581222	0.334075
57	H	0.343362	0.550378	0.326484
58	H	0.397039	0.610348	0.307171
59	C	0.439721	0.860595	0.335577
60	C	0.406039	0.881183	0.011176
61	C	0.425299	0.936222	0.014149
62	C	0.480128	0.971697	0.006446
63	C	0.513736	0.951018	0.330435
64	C	0.493895	0.896287	0.32856
65	H	0.553159	0.975747	0.324443
66	H	0.519346	0.882724	0.321777
67	C	0.502708	0.027543	0.00663
68	C	0.543045	0.059248	0.037196
69	C	0.565541	0.114512	0.037124
70	C	0.548605	0.139573	0.006299
71	C	0.508458	0.107767	0.308939
72	C	0.486069	0.052541	0.308859
73	H	0.555955	0.042271	0.060094
74	H	0.594537	0.136332	0.059773
75	H	0.495109	0.12464	0.286367
76	H	0.36673	0.85534	0.016633
77	H	0.457365	0.030676	0.285967
78	N	0.390748	0.952705	0.025522
79	H	0.353751	0.927546	0.031603
80	H	0.4023	0.989662	0.030882
81	C	0.571851	0.197937	0.005992
82	H	0.597671	0.21539	0.03492
83	H	0.539956	0.207087	0.00892
84	C	0.417969	0.80249	0.334125
85	H	0.448808	0.792826	0.326541
86	H	0.388855	0.786556	0.307208
87	C	0.138584	0.57895	0.335511
88	C	0.118001	0.524681	0.011105
89	C	0.062963	0.488899	0.014078
90	C	0.027489	0.50825	0.006362
91	C	0.04816	0.562531	0.330341
92	C	0.102891	0.597425	0.328474
93	H	0.02343	0.577224	0.324352
94	H	0.116454	0.636443	0.3217
95	C	0.971638	0.474984	0.006564
96	C	0.939947	0.483604	0.037154
97	C	0.884682	0.450852	0.037084
98	C	0.859609	0.408862	0.006252
99	C	0.891401	0.400526	0.308874
100	C	0.946626	0.433361	0.308781
101	H	0.956934	0.513493	0.060049
102	H	0.862873	0.458023	0.059747
103	H	0.874516	0.370314	0.286295
104	H	0.143846	0.511225	0.0166
105	H	0.968481	0.42653	0.285875
106	N	0.046495	0.437877	0.025475
107	H	0.071635	0.425985	0.031433
108	H	0.009522	0.412418	0.030696
109	C	0.801241	0.37375	0.005956
110	H	0.783801	0.38212	0.034891
111	H	0.792091	0.332703	0.008879
112	C	0.196691	0.615314	0.334082
113	H	0.206353	0.655818	0.3265
114	H	0.212643	0.602146	0.30717
115	C	0.358115	0.635768	0.37698
116	C	0.30242	0.610877	0.37713
117	C	0.276985	0.641046	0.376984
118	C	0.307789	0.696741	0.37715
119	C	0.363393	0.722177	0.377
120	C	0.388284	0.691372	0.377153
121	H	0.289529	0.718846	0.37726
122	H	0.428648	0.709629	0.37726
123	H	0.280314	0.570511	0.37723
124	N	0.384975	0.606851	0.377097
125	H	0.37077	0.579602	0.402487
126	N	0.392312	0.777955	0.377133
127	H	0.419542	0.790985	0.402537
128	N	0.221208	0.614188	0.3771
129	H	0.208163	0.62838	0.402497
130	C	0.642845	0.365396	0.298155
131	C	0.698381	0.388275	0.297921
132	C	0.721875	0.356321	0.298146
133	C	0.689222	0.300787	0.297928
134	C	0.633771	0.277291	0.29816
135	C	0.610891	0.309946	0.297936
136	H	0.70601	0.277339	0.297701
137	H	0.570657	0.293158	0.297714
138	H	0.721828	0.42851	0.297691
139	N	0.617812	0.396105	0.298071
140	H	0.630377	0.420237	0.270568
141	N	0.603063	0.221548	0.298087
142	H	0.578917	0.209975	0.270592
143	N	0.777619	0.381354	0.29806
144	H	0.789184	0.368783	0.270559
145	C	0.420225	0.559477	0.668843
146	C	0.474495	0.593166	0.344448
147	C	0.510276	0.573909	0.347423
148	C	0.49093	0.519087	0.339701
149	C	0.43665	0.485477	0.663669
150	C	0.401754	0.50531	0.661797
151	H	0.42196	0.446055	0.657673
152	H	0.362739	0.479855	0.655015
153	C	0.524195	0.496504	0.339904
154	C	0.51557	0.456189	0.370491
155	C	0.548323	0.433677	0.370424
156	C	0.590316	0.450595	0.339595
157	C	0.598654	0.490724	0.642217
158	C	0.565821	0.513117	0.642123
159	H	0.485679	0.443286	0.393386
160	H	0.54115	0.404694	0.393086
161	H	0.62887	0.504054	0.619642
162	H	0.487945	0.632461	0.349948
163	H	0.572656	0.541808	0.619218
164	N	0.561295	0.608459	0.358829
165	H	0.573184	0.645491	0.364791
166	H	0.586755	0.596947	0.364049
167	C	0.625424	0.427336	0.339298
168	H	0.617058	0.401529	0.368236
169	H	0.666472	0.459232	0.342216
170	C	0.383864	0.581222	0.66741
171	H	0.343362	0.550378	0.659819
172	H	0.397039	0.610348	0.640505
173	C	0.439721	0.860595	0.668909
174	C	0.406039	0.881183	0.344511
175	C	0.425299	0.936222	0.347483
176	C	0.480128	0.971697	0.339778
177	C	0.513736	0.951018	0.663769
178	C	0.493895	0.896287	0.661894
179	H	0.553159	0.975747	0.657777
180	H	0.519346	0.882724	0.655112
181	C	0.502708	0.027543	0.339964
182	C	0.543045	0.059248	0.370531
183	C	0.565541	0.114512	0.370458
184	C	0.548605	0.139573	0.339631
185	C	0.508458	0.107767	0.642273
186	C	0.486069	0.052541	0.642193
187	H	0.555955	0.042271	0.393429
188	H	0.594537	0.136332	0.393106
189	H	0.495109	0.12464	0.619701
190	H	0.36673	0.85534	0.349968
191	H	0.457365	0.030676	0.619302
192	N	0.390748	0.952705	0.358855
193	H	0.353751	0.927546	0.364938
194	H	0.4023	0.989662	0.364215
195	C	0.571851	0.197937	0.339325
196	H	0.597671	0.21539	0.368253
197	H	0.539956	0.207087	0.342253
198	C	0.417969	0.80249	0.66746
199	H	0.448808	0.792826	0.659875
200	H	0.388855	0.786556	0.640541
201	C	0.138584	0.57895	0.668846
202	C	0.118001	0.524681	0.344438
203	C	0.062963	0.488899	0.347413
204	C	0.027489	0.50825	0.339695
205	C	0.04816	0.562531	0.663673
206	C	0.102891	0.597425	0.661807
207	H	0.02343	0.577224	0.657687
208	H	0.116454	0.636443	0.655032
209	C	0.971638	0.474984	0.339898
210	C	0.939947	0.483604	0.370488
211	C	0.884682	0.450852	0.370418
212	C	0.859609	0.408862	0.339585
213	C	0.891401	0.400526	0.642207
214	C	0.946626	0.433361	0.642113
215	H	0.956934	0.513493	0.393383
216	H	0.862873	0.458023	0.39308
217	H	0.874516	0.370314	0.619628
218	H	0.143846	0.511225	0.349935
219	H	0.968481	0.42653	0.619208
220	N	0.046495	0.437877	0.358809
221	H	0.071635	0.425985	0.364765
222	H	0.009522	0.412418	0.364029
223	C	0.801241	0.37375	0.339288
224	H	0.783801	0.38212	0.368226
225	H	0.792091	0.332703	0.342213
226	C	0.196691	0.615314	0.667414
227	H	0.206353	0.655818	0.659832
228	H	0.212643	0.602146	0.640505
229	C	0.358115	0.635768	0.710312
230	C	0.30242	0.610877	0.710465
231	C	0.276985	0.641046	0.710316
232	C	0.307789	0.696741	0.710482
233	C	0.363393	0.722177	0.710332
234	C	0.388284	0.691372	0.710485
235	H	0.289529	0.718846	0.710592
236	H	0.428648	0.709629	0.710595
237	H	0.280314	0.570511	0.710562
238	N	0.384975	0.606851	0.710432
239	H	0.37077	0.579602	0.735822
240	N	0.392312	0.777955	0.710469
241	H	0.419542	0.790985	0.735869
242	N	0.221208	0.614188	0.710432
243	H	0.208163	0.62838	0.735829
244	C	0.642845	0.365396	0.631487
245	C	0.698381	0.388275	0.631254
246	C	0.721875	0.356321	0.63148
247	C	0.689222	0.300787	0.631261
248	C	0.633771	0.277291	0.631494
249	C	0.610891	0.309946	0.631271
250	H	0.70601	0.277339	0.631034
251	H	0.570657	0.293158	0.631047
252	H	0.721828	0.42851	0.631024
253	N	0.617812	0.396105	0.631404
254	H	0.630377	0.420237	0.603902
255	N	0.603063	0.221548	0.63142
256	H	0.578917	0.209975	0.603925
257	N	0.777619	0.381354	0.631394
258	H	0.789184	0.368783	0.603892
259	C	0.420225	0.559477	0.002176
260	C	0.474495	0.593166	0.67778
261	C	0.510276	0.573909	0.680755
262	C	0.49093	0.519087	0.673033
263	C	0.43665	0.485477	0.997001
264	C	0.401754	0.50531	0.995129
265	H	0.42196	0.446055	0.991009
266	H	0.362739	0.479855	0.98835
267	C	0.524195	0.496504	0.673236
268	C	0.51557	0.456189	0.703826
269	C	0.548323	0.433677	0.703757
270	C	0.590316	0.450595	0.67293
271	C	0.598654	0.490724	0.975552
272	C	0.565821	0.513117	0.975459
273	H	0.485679	0.443286	0.726718
274	H	0.54115	0.404694	0.726418
275	H	0.62887	0.504054	0.952974
276	H	0.487945	0.632461	0.68328
277	H	0.572656	0.541808	0.952554
278	N	0.561295	0.608459	0.692161
279	H	0.573184	0.645491	0.698124
280	H	0.586755	0.596947	0.697384
281	C	0.625424	0.427336	0.672634
282	H	0.617058	0.401529	0.701568
283	H	0.666472	0.459232	0.675552
284	C	0.383864	0.581222	0.000742
285	H	0.343362	0.550378	0.993151
286	H	0.397039	0.610348	0.973837
287	C	0.439721	0.860595	0.002243
288	C	0.406039	0.881183	0.677843
289	C	0.425299	0.936222	0.680815
290	C	0.480128	0.971697	0.673113
291	C	0.513736	0.951018	0.997101
292	C	0.493895	0.896287	0.995226
293	H	0.553159	0.975747	0.991109
294	H	0.519346	0.882724	0.988444
295	C	0.502708	0.027543	0.673296
296	C	0.543045	0.059248	0.703863
297	C	0.565541	0.114512	0.70379
298	C	0.548605	0.139573	0.672967
299	C	0.508458	0.107767	0.975605
300	C	0.486069	0.052541	0.975526
301	H	0.555955	0.042271	0.726761
302	H	0.594537	0.136332	0.726438
303	H	0.495109	0.12464	0.953034
304	H	0.36673	0.85534	0.6833
305	H	0.457365	0.030676	0.952634
306	N	0.390748	0.952705	0.692187
307	H	0.353751	0.927546	0.69827
308	H	0.4023	0.989662	0.697551
309	C	0.571851	0.197937	0.67266
310	H	0.597671	0.21539	0.701588
311	H	0.539956	0.207087	0.675585
312	C	0.417969	0.80249	0.000792
313	H	0.448808	0.792826	0.993207
314	H	0.388855	0.786556	0.973877
315	C	0.138584	0.57895	0.002178
316	C	0.118001	0.524681	0.67777
317	C	0.062963	0.488899	0.680745
318	C	0.027489	0.50825	0.67303
319	C	0.04816	0.562531	0.997008
320	C	0.102891	0.597425	0.995139
321	H	0.02343	0.577224	0.991019
322	H	0.116454	0.636443	0.988367
323	C	0.971638	0.474984	0.67323
324	C	0.939947	0.483604	0.70382
325	C	0.884682	0.450852	0.70375
326	C	0.859609	0.408862	0.67292
327	C	0.891401	0.400526	0.975542
328	C	0.946626	0.433361	0.975449
329	H	0.956934	0.513493	0.726715
330	H	0.862873	0.458023	0.726415
331	H	0.874516	0.370314	0.952964
332	H	0.143846	0.511225	0.683267
333	H	0.968481	0.42653	0.952541
334	N	0.046495	0.437877	0.692141
335	H	0.071635	0.425985	0.6981
336	H	0.009522	0.412418	0.697364
337	C	0.801241	0.37375	0.672624
338	H	0.783801	0.38212	0.701558
339	H	0.792091	0.332703	0.675545
340	C	0.196691	0.615314	0.000747
341	H	0.206353	0.655818	0.993167
342	H	0.212643	0.602146	0.973837
