data_C180H108N36O9_2018-02-15_10:42:27
#******************************************
#
# CIF file created by Zeo++
# Zeo++ is an open source package to
# analyze microporous materials
#
#*******************************************

_cell_length_a		29.3358   
_cell_length_b		29.336   
_cell_length_c		29.8688   
_cell_angle_alpha		90   
_cell_angle_beta		90   
_cell_angle_gamma		120   

_symmetry_space_group_name_H-M		'P1'
_symmetry_Int_Tables_number		1
_symmetry_cell_setting		Monoclinic

loop_
_symmetry_equiv_pos_as_xyz
'+x,+y,+z'

loop_
_atom_site_label
_atom_site_type_symbol
_atom_site_fract_x
_atom_site_fract_y
_atom_site_fract_z
1	C	0.027329	0.514216	0.296829
2	N	0.032132	0.516613	0.042364
3	C	0.027329	0.514216	0.630163
4	N	0.032132	0.516613	0.375697
5	C	0.027329	0.514216	0.963495
6	N	0.032132	0.516613	0.709031
7	H	0.044159	0.522635	0.265758
8	H	0.044159	0.522635	0.599091
9	H	0.044159	0.522635	0.932425
10	C	0.057951	0.529523	0.002653
11	C	0.057951	0.529523	0.335986
12	C	0.057951	0.529523	0.669318
13	C	0.363829	0.72326	0.00228
14	N	0.389307	0.695203	0.002274
15	C	0.36383	0.641668	0.00228
16	N	0.310293	0.616189	0.002275
17	C	0.282236	0.641668	0.002281
18	N	0.310294	0.695203	0.002275
19	C	0.391959	0.613536	0.002224
20	C	0.44779	0.640361	0.002221
21	C	0.475575	0.612733	0.002174
22	C	0.448254	0.557246	0.001976
23	C	0.392762	0.529921	0.002174
24	C	0.365138	0.55771	0.002221
25	C	0.39196	0.779523	0.002223
26	C	0.447789	0.808528	0.002219
27	C	0.475575	0.863941	0.00217
28	C	0.448253	0.892108	0.00197
29	C	0.392763	0.863941	0.00217
30	C	0.365137	0.808528	0.002221
31	C	0.225975	0.613536	0.002226
32	C	0.196968	0.640361	0.002223
33	C	0.141556	0.612733	0.002174
34	C	0.113387	0.557242	0.001973
35	C	0.141556	0.529921	0.002174
36	C	0.196969	0.55771	0.002222
37	H	0.515867	0.883519	0.00232
38	H	0.469155	0.789666	0.002331
39	H	0.372048	0.883515	0.002319
40	H	0.324909	0.789666	0.00233
41	H	0.215831	0.680588	0.002331
42	H	0.121978	0.633445	0.00232
43	H	0.215831	0.536341	0.002334
44	H	0.121979	0.489631	0.002324
45	H	0.324907	0.536341	0.002331
46	H	0.372048	0.489631	0.002321
47	H	0.515867	0.633449	0.00232
48	H	0.469155	0.680588	0.002329
49	C	0.642769	0.281139	0.99904
50	N	0.617292	0.309194	0.999124
51	C	0.64277	0.362727	0.999043
52	N	0.696302	0.388205	0.999124
53	C	0.724356	0.362727	0.999047
54	N	0.696301	0.309194	0.999124
55	C	0.614645	0.39085	0.999746
56	C	0.558823	0.364018	0.000316
57	C	0.531065	0.391613	0.002302
58	C	0.558427	0.447069	0.004464
59	C	0.613882	0.474429	0.002288
60	C	0.641478	0.446672	0.000322
61	C	0.614646	0.224892	0.99975
62	C	0.558822	0.195903	0.000329
63	C	0.531063	0.140549	0.002305
64	C	0.558427	0.112456	0.004466
65	C	0.61388	0.140549	0.002306
66	C	0.641475	0.195902	0.000322
67	C	0.780605	0.39085	0.999746
68	C	0.809595	0.364017	0.000316
69	C	0.864949	0.391612	0.002297
70	C	0.893042	0.447069	0.004461
71	C	0.864951	0.474429	0.002268
72	C	0.809594	0.446672	0.000322
73	H	0.490792	0.121002	0.00329
74	H	0.537453	0.214753	0.999753
75	H	0.63461	0.121005	0.003299
76	H	0.6817	0.214754	0.999763
77	H	0.790741	0.323795	0.999743
78	H	0.884495	0.370886	0.003289
79	H	0.790741	0.468041	0.999773
80	H	0.88449	0.5147	0.003316
81	H	0.681702	0.468045	0.999763
82	H	0.634609	0.514704	0.0033
83	H	0.490792	0.370886	0.003293
84	H	0.53745	0.323795	0.999757
85	C	0.53071	0.474788	0.007547
86	N	0.517829	0.487667	0.300925
87	C	0.491283	0.514216	0.29683
88	C	0.475971	0.529527	0.002653
89	N	0.488878	0.516613	0.042365
90	C	0.51558	0.48991	0.047857
91	H	0.482871	0.522631	0.265759
92	C	0.524666	0.48083	0.092332
93	C	0.551977	0.453521	0.106697
94	H	0.531561	0.413136	0.094401
95	H	0.553788	0.451718	0.143176
96	H	0.592361	0.473941	0.094396
97	O	0.508369	0.497125	0.122636
98	C	0.530709	0.057021	0.007548
99	N	0.517829	0.031261	0.300926
100	C	0.491283	0.978167	0.296829
101	C	0.475972	0.947544	0.002651
102	N	0.48888	0.973361	0.042363
103	C	0.515581	0.026764	0.047857
104	H	0.482869	0.96134	0.265757
105	C	0.524664	0.04493	0.092333
106	C	0.551973	0.099548	0.1067
107	H	0.592356	0.119515	0.094403
108	H	0.553779	0.10316	0.143179
109	H	0.531557	0.119515	0.094403
110	O	0.508367	0.012336	0.122636
111	C	0.948473	0.474784	0.007545
112	N	0.974238	0.487671	0.300923
113	C	0.978729	0.48991	0.047855
114	C	0.960558	0.480826	0.09233
115	C	0.905941	0.453525	0.106692
116	H	0.885978	0.473941	0.094388
117	H	0.902323	0.451722	0.143171
118	H	0.885973	0.41314	0.094398
119	O	0.993153	0.497125	0.122635
120	C	0.363829	0.72326	0.335615
121	N	0.389307	0.695203	0.335608
122	C	0.36383	0.641668	0.335611
123	N	0.310293	0.616189	0.335608
124	C	0.282236	0.641668	0.335615
125	N	0.310294	0.695203	0.335608
126	C	0.391959	0.613536	0.335558
127	C	0.44779	0.640361	0.335554
128	C	0.475575	0.612733	0.335508
129	C	0.448254	0.557246	0.33531
130	C	0.392762	0.529921	0.335508
131	C	0.365138	0.55771	0.335554
132	C	0.39196	0.779523	0.335554
133	C	0.447789	0.808528	0.335551
134	C	0.475575	0.863941	0.335504
135	C	0.448253	0.892108	0.335303
136	C	0.392763	0.863941	0.335504
137	C	0.365137	0.808528	0.335554
138	C	0.225975	0.613536	0.335558
139	C	0.196968	0.640361	0.335554
140	C	0.141556	0.612733	0.335508
141	C	0.113387	0.557242	0.335307
142	C	0.141556	0.529921	0.335511
143	C	0.196969	0.55771	0.335554
144	H	0.515867	0.883519	0.335652
145	H	0.469155	0.789666	0.335665
146	H	0.372048	0.883515	0.335652
147	H	0.324909	0.789666	0.335662
148	H	0.215831	0.680588	0.335665
149	H	0.121978	0.633445	0.335655
150	H	0.215831	0.536341	0.335668
151	H	0.121979	0.489631	0.335658
152	H	0.324907	0.536341	0.335665
153	H	0.372048	0.489631	0.335655
154	H	0.515867	0.633449	0.335652
155	H	0.469155	0.680588	0.335662
156	C	0.642769	0.281139	0.332375
157	N	0.617292	0.309194	0.332457
158	C	0.64277	0.362727	0.332377
159	N	0.696302	0.388205	0.332458
160	C	0.724356	0.362727	0.33238
161	N	0.696301	0.309194	0.332458
162	C	0.614645	0.39085	0.333081
163	C	0.558823	0.364018	0.333649
164	C	0.531065	0.391613	0.335635
165	C	0.558427	0.447069	0.337798
166	C	0.613882	0.474429	0.335621
167	C	0.641478	0.446672	0.333657
168	C	0.614646	0.224892	0.333083
169	C	0.558822	0.195903	0.333664
170	C	0.531063	0.140549	0.335638
171	C	0.558427	0.112456	0.337798
172	C	0.61388	0.140549	0.335638
173	C	0.641475	0.195902	0.333657
174	C	0.780605	0.39085	0.333079
175	C	0.809595	0.364017	0.333651
176	C	0.864949	0.391612	0.335628
177	C	0.893042	0.447069	0.337794
178	C	0.864951	0.474429	0.335601
179	C	0.809594	0.446672	0.333656
180	H	0.490792	0.121002	0.336622
181	H	0.537453	0.214753	0.333086
182	H	0.63461	0.121005	0.336633
183	H	0.6817	0.214754	0.333097
184	H	0.790741	0.323795	0.333078
185	H	0.884495	0.370886	0.336622
186	H	0.790741	0.468041	0.333108
187	H	0.88449	0.5147	0.336649
188	H	0.681702	0.468045	0.333096
189	H	0.634609	0.514704	0.336633
190	H	0.490792	0.370886	0.336626
191	H	0.53745	0.323795	0.333089
192	C	0.53071	0.474788	0.340881
193	N	0.517829	0.487667	0.634258
194	C	0.491283	0.514216	0.630163
195	C	0.475971	0.529527	0.335986
196	N	0.488878	0.516613	0.375697
197	C	0.51558	0.48991	0.381191
198	H	0.482871	0.522631	0.599091
199	C	0.524666	0.48083	0.425665
200	C	0.551977	0.453521	0.440028
201	H	0.531561	0.413136	0.427734
202	H	0.553788	0.451718	0.476508
203	H	0.592361	0.473941	0.427728
204	O	0.508369	0.497125	0.455971
205	C	0.530709	0.057021	0.340881
206	N	0.517829	0.031261	0.634258
207	C	0.491283	0.978167	0.630163
208	C	0.475972	0.947544	0.335983
209	N	0.48888	0.973361	0.375697
210	C	0.515581	0.026764	0.381191
211	H	0.482869	0.96134	0.599091
212	C	0.524664	0.04493	0.425665
213	C	0.551973	0.099548	0.440031
214	H	0.592356	0.119515	0.427734
215	H	0.553779	0.10316	0.476511
216	H	0.531557	0.119515	0.427734
217	O	0.508367	0.012336	0.455968
218	C	0.948473	0.474784	0.340878
219	N	0.974238	0.487671	0.634258
220	C	0.978729	0.48991	0.381187
221	C	0.960558	0.480826	0.425662
222	C	0.905941	0.453525	0.440025
223	H	0.885978	0.473941	0.427721
224	H	0.902323	0.451722	0.476504
225	H	0.885973	0.41314	0.427731
226	O	0.993153	0.497125	0.455968
227	C	0.363829	0.72326	0.668946
228	N	0.389307	0.695203	0.668939
229	C	0.36383	0.641668	0.668946
230	N	0.310293	0.616189	0.668943
231	C	0.282236	0.641668	0.668946
232	N	0.310294	0.695203	0.668943
233	C	0.391959	0.613536	0.668889
234	C	0.44779	0.640361	0.668886
235	C	0.475575	0.612733	0.668839
236	C	0.448254	0.557246	0.668641
237	C	0.392762	0.529921	0.668842
238	C	0.365138	0.55771	0.668886
239	C	0.39196	0.779523	0.668889
240	C	0.447789	0.808528	0.668886
241	C	0.475575	0.863941	0.668839
242	C	0.448253	0.892108	0.668638
243	C	0.392763	0.863941	0.668839
244	C	0.365137	0.808528	0.668886
245	C	0.225975	0.613536	0.668893
246	C	0.196968	0.640361	0.668889
247	C	0.141556	0.612733	0.668839
248	C	0.113387	0.557242	0.668641
249	C	0.141556	0.529921	0.668842
250	C	0.196969	0.55771	0.668889
251	H	0.515867	0.883519	0.668986
252	H	0.469155	0.789666	0.668996
253	H	0.372048	0.883515	0.668986
254	H	0.324909	0.789666	0.668996
255	H	0.215831	0.680588	0.668996
256	H	0.121978	0.633445	0.668986
257	H	0.215831	0.536341	0.669
258	H	0.121979	0.489631	0.66899
259	H	0.324907	0.536341	0.668996
260	H	0.372048	0.489631	0.668986
261	H	0.515867	0.633449	0.668986
262	H	0.469155	0.680588	0.668996
263	C	0.642769	0.281139	0.665709
264	N	0.617292	0.309194	0.665789
265	C	0.64277	0.362727	0.665712
266	N	0.696302	0.388205	0.665792
267	C	0.724356	0.362727	0.665712
268	N	0.696301	0.309194	0.665792
269	C	0.614645	0.39085	0.666415
270	C	0.558823	0.364018	0.666981
271	C	0.531065	0.391613	0.668966
272	C	0.558427	0.447069	0.671129
273	C	0.613882	0.474429	0.668953
274	C	0.641478	0.446672	0.666991
275	C	0.614646	0.224892	0.666415
276	C	0.558822	0.195903	0.666998
277	C	0.531063	0.140549	0.668973
278	C	0.558427	0.112456	0.671132
279	C	0.61388	0.140549	0.668973
280	C	0.641475	0.195902	0.666991
281	C	0.780605	0.39085	0.666412
282	C	0.809595	0.364017	0.666984
283	C	0.864949	0.391612	0.668963
284	C	0.893042	0.447069	0.671126
285	C	0.864951	0.474429	0.668933
286	C	0.809594	0.446672	0.666988
287	H	0.490792	0.121002	0.669957
288	H	0.537453	0.214753	0.666418
289	H	0.63461	0.121005	0.669964
290	H	0.6817	0.214754	0.666428
291	H	0.790741	0.323795	0.666412
292	H	0.884495	0.370886	0.669954
293	H	0.790741	0.468041	0.666442
294	H	0.88449	0.5147	0.669984
295	H	0.681702	0.468045	0.666428
296	H	0.634609	0.514704	0.669964
297	H	0.490792	0.370886	0.669961
298	H	0.53745	0.323795	0.666422
299	C	0.53071	0.474788	0.674213
300	N	0.517829	0.487667	0.967593
301	C	0.491283	0.514216	0.963495
302	C	0.475971	0.529527	0.669318
303	N	0.488878	0.516613	0.709031
304	C	0.51558	0.48991	0.714522
305	H	0.482871	0.522631	0.932425
306	C	0.524666	0.48083	0.758997
307	C	0.551977	0.453521	0.773363
308	H	0.531561	0.413136	0.761066
309	H	0.553788	0.451718	0.809842
310	H	0.592361	0.473941	0.761062
311	O	0.508369	0.497125	0.789303
312	C	0.530709	0.057021	0.674216
313	N	0.517829	0.031261	0.967593
314	C	0.491283	0.978167	0.963495
315	C	0.475972	0.947544	0.669318
316	N	0.48888	0.973361	0.709028
317	C	0.515581	0.026764	0.714522
318	H	0.482869	0.96134	0.932422
319	C	0.524664	0.04493	0.759
320	C	0.551973	0.099548	0.773366
321	H	0.592356	0.119515	0.761069
322	H	0.553779	0.10316	0.809846
323	H	0.531557	0.119515	0.761069
324	O	0.508367	0.012336	0.789303
325	C	0.948473	0.474784	0.674213
326	N	0.974238	0.487671	0.967589
327	C	0.978729	0.48991	0.714522
328	C	0.960558	0.480826	0.758997
329	C	0.905941	0.453525	0.77336
330	H	0.885978	0.473941	0.761052
331	H	0.902323	0.451722	0.809836
332	H	0.885973	0.41314	0.761062
333	O	0.993153	0.497125	0.789303
