data_C180H108N18O9_2018-02-15_10:42:14
#******************************************
#
# CIF file created by Zeo++
# Zeo++ is an open source package to
# analyze microporous materials
#
#*******************************************

_cell_length_a		29.4589   
_cell_length_b		29.4588   
_cell_length_c		29.9056   
_cell_angle_alpha		90   
_cell_angle_beta		90   
_cell_angle_gamma		120   

_symmetry_space_group_name_H-M		'P1'
_symmetry_Int_Tables_number		1
_symmetry_cell_setting		Monoclinic

loop_
_symmetry_equiv_pos_as_xyz
'+x,+y,+z'

loop_
_atom_site_label
_atom_site_type_symbol
_atom_site_fract_x
_atom_site_fract_y
_atom_site_fract_z
1	C	0.030269	0.515532	0.295127
2	C	0.029605	0.515198	0.043751
3	C	0.030269	0.515532	0.628461
4	C	0.029605	0.515198	0.377084
5	C	0.030269	0.515532	0.961794
6	C	0.029605	0.515198	0.710416
7	C	0.362779	0.722402	0.00069
8	N	0.388165	0.694478	0.0007
9	C	0.36278	0.64117	0.00069
10	N	0.309469	0.615782	0.0007
11	C	0.281544	0.641166	0.00069
12	N	0.309469	0.694478	0.000703
13	C	0.390779	0.613168	0.000787
14	C	0.446377	0.639892	0.000914
15	C	0.474045	0.612388	0.001265
16	C	0.446836	0.557112	0.001462
17	C	0.391559	0.529901	0.001265
18	C	0.364056	0.55757	0.00091
19	C	0.390779	0.778403	0.000787
20	C	0.446377	0.807275	0.00091
21	C	0.474045	0.862449	0.001258
22	C	0.446834	0.890514	0.001455
23	C	0.391558	0.862449	0.001265
24	C	0.364054	0.807275	0.000914
25	C	0.225545	0.613168	0.000787
26	C	0.196671	0.639892	0.000914
27	C	0.141499	0.612388	0.001258
28	C	0.113432	0.557112	0.001452
29	C	0.141499	0.529901	0.001262
30	C	0.196672	0.55757	0.00091
31	H	0.514178	0.881958	0.001606
32	H	0.467662	0.788488	0.00091
33	H	0.370934	0.881958	0.001605
34	H	0.323981	0.788488	0.00091
35	H	0.215461	0.679967	0.00091
36	H	0.121989	0.633013	0.001603
37	H	0.215461	0.536286	0.000914
38	H	0.121989	0.489767	0.001606
39	H	0.323982	0.536286	0.00091
40	H	0.370935	0.489767	0.001605
41	H	0.51418	0.633013	0.001604
42	H	0.467662	0.679967	0.000907
43	C	0.641955	0.280757	0.001409
44	N	0.61657	0.30868	0.001405
45	C	0.641955	0.36199	0.001409
46	N	0.695265	0.387377	0.001405
47	C	0.723191	0.36199	0.001409
48	N	0.695266	0.30868	0.001405
49	C	0.613957	0.389989	0.001348
50	C	0.558357	0.363265	0.001322
51	C	0.530691	0.390773	0.001295
52	C	0.557898	0.446047	0.001238
53	C	0.613173	0.473258	0.001295
54	C	0.640681	0.445588	0.001325
55	C	0.613959	0.224759	0.001348
56	C	0.558359	0.195884	0.001325
57	C	0.53069	0.140708	0.001295
58	C	0.557901	0.112642	0.001241
59	C	0.613175	0.140708	0.001295
60	C	0.640681	0.195884	0.001325
61	C	0.779188	0.38999	0.001348
62	C	0.808061	0.363265	0.001325
63	C	0.863238	0.390773	0.001298
64	C	0.891303	0.446047	0.001241
65	C	0.86324	0.473258	0.001295
66	C	0.808063	0.445588	0.001325
67	H	0.490555	0.1212	0.001375
68	H	0.537074	0.214673	0.001382
69	H	0.633802	0.1212	0.001375
70	H	0.680756	0.214674	0.001382
71	H	0.789273	0.323191	0.001379
72	H	0.882745	0.370144	0.001379
73	H	0.789271	0.466872	0.001382
74	H	0.882743	0.513391	0.001379
75	H	0.680754	0.466872	0.001382
76	H	0.6338	0.513391	0.001375
77	H	0.490554	0.370144	0.001375
78	H	0.537074	0.323191	0.001382
79	C	0.530193	0.473751	0.334974
80	C	0.515969	0.48798	0.294559
81	C	0.488416	0.515532	0.29513
82	C	0.474566	0.52938	0.00274
83	C	0.488751	0.515195	0.043754
84	H	0.478544	0.525401	0.265304
85	H	0.525544	0.4784	0.26447
86	C	0.5164	0.487545	0.042553
87	H	0.52661	0.477338	0.072059
88	O	0.47803	0.525919	0.085854
89	H	0.45883	0.545106	0.085294
90	C	0.530196	0.057232	0.334978
91	C	0.515971	0.028782	0.294559
92	C	0.488418	0.973679	0.295129
93	C	0.474565	0.945974	0.002737
94	C	0.488749	0.974345	0.043753
95	H	0.478547	0.953935	0.265302
96	H	0.525549	0.047937	0.264471
97	C	0.516399	0.029644	0.042553
98	H	0.526607	0.05006	0.07206
99	O	0.478023	0.9529	0.085852
100	H	0.458849	0.914511	0.085291
101	C	0.946715	0.473751	0.334978
102	C	0.975162	0.487976	0.29456
103	C	0.057971	0.52938	0.002735
104	H	0.050009	0.525401	0.2653
105	H	0.956008	0.4784	0.264472
106	C	0.974303	0.487549	0.042553
107	H	0.953888	0.477338	0.072061
108	O	0.051051	0.525919	0.085851
109	H	0.089438	0.545118	0.085288
110	C	0.362779	0.722402	0.334024
111	N	0.388165	0.694478	0.334034
112	C	0.36278	0.64117	0.334024
113	N	0.309469	0.615782	0.334035
114	C	0.281544	0.641166	0.334025
115	N	0.309469	0.694478	0.334035
116	C	0.390779	0.613168	0.334121
117	C	0.446377	0.639892	0.334247
118	C	0.474045	0.612388	0.3346
119	C	0.446836	0.557112	0.334794
120	C	0.391559	0.529901	0.3346
121	C	0.364056	0.55757	0.334246
122	C	0.390779	0.778403	0.33412
123	C	0.446377	0.807275	0.334244
124	C	0.474045	0.862449	0.334593
125	C	0.446834	0.890514	0.33479
126	C	0.391558	0.862449	0.334596
127	C	0.364054	0.807275	0.334247
128	C	0.225545	0.613168	0.334121
129	C	0.196671	0.639892	0.334248
130	C	0.141499	0.612388	0.334593
131	C	0.113432	0.557112	0.334787
132	C	0.141499	0.529901	0.334593
133	C	0.196672	0.55757	0.334245
134	H	0.514178	0.881958	0.334938
135	H	0.467662	0.788488	0.334246
136	H	0.370934	0.881958	0.334938
137	H	0.323981	0.788488	0.334244
138	H	0.215461	0.679967	0.334244
139	H	0.121989	0.633013	0.334938
140	H	0.215461	0.536286	0.334247
141	H	0.121989	0.489767	0.334938
142	H	0.323982	0.536286	0.334244
143	H	0.370935	0.489767	0.334938
144	H	0.51418	0.633013	0.334938
145	H	0.467662	0.679967	0.334242
146	C	0.641955	0.280757	0.334744
147	N	0.61657	0.30868	0.334737
148	C	0.641955	0.36199	0.33474
149	N	0.695265	0.387377	0.334737
150	C	0.723191	0.36199	0.33474
151	N	0.695266	0.30868	0.334737
152	C	0.613957	0.389989	0.33468
153	C	0.558357	0.363265	0.334657
154	C	0.530691	0.390773	0.33463
155	C	0.557898	0.446047	0.334573
156	C	0.613173	0.473258	0.334627
157	C	0.640681	0.445588	0.334657
158	C	0.613959	0.224759	0.334683
159	C	0.558359	0.195884	0.33466
160	C	0.53069	0.140708	0.33463
161	C	0.557901	0.112642	0.334573
162	C	0.613175	0.140708	0.33463
163	C	0.640681	0.195884	0.334657
164	C	0.779188	0.38999	0.334683
165	C	0.808061	0.363265	0.33466
166	C	0.863238	0.390773	0.33463
167	C	0.891303	0.446047	0.334576
168	C	0.86324	0.473258	0.33463
169	C	0.808063	0.445588	0.334657
170	H	0.490555	0.1212	0.33471
171	H	0.537074	0.214673	0.334714
172	H	0.633802	0.1212	0.33471
173	H	0.680756	0.214674	0.334714
174	H	0.789273	0.323191	0.334714
175	H	0.882745	0.370144	0.33471
176	H	0.789271	0.466872	0.334714
177	H	0.882743	0.513391	0.33471
178	H	0.680754	0.466872	0.334714
179	H	0.6338	0.513391	0.334707
180	H	0.490554	0.370144	0.33471
181	H	0.537074	0.323191	0.334714
182	C	0.530193	0.473751	0.66831
183	C	0.515969	0.48798	0.627893
184	C	0.488416	0.515532	0.628465
185	C	0.474566	0.52938	0.336071
186	C	0.488751	0.515195	0.377087
187	H	0.478544	0.525401	0.598638
188	H	0.525544	0.4784	0.597805
189	C	0.5164	0.487545	0.375886
190	H	0.52661	0.477338	0.405393
191	O	0.47803	0.525919	0.419186
192	H	0.45883	0.545106	0.418628
193	C	0.530196	0.057232	0.66831
194	C	0.515971	0.028782	0.627893
195	C	0.488418	0.973679	0.628461
196	C	0.474565	0.945974	0.336071
197	C	0.488749	0.974345	0.377087
198	H	0.478547	0.953935	0.598634
199	H	0.525549	0.047937	0.597805
200	C	0.516399	0.029644	0.375886
201	H	0.526607	0.05006	0.405393
202	O	0.478023	0.9529	0.419186
203	H	0.458849	0.914511	0.418624
204	C	0.946715	0.473751	0.66831
205	C	0.975162	0.487976	0.627893
206	C	0.057971	0.52938	0.336068
207	H	0.050009	0.525401	0.598634
208	H	0.956008	0.4784	0.597805
209	C	0.974303	0.487549	0.375886
210	H	0.953888	0.477338	0.405393
211	O	0.051051	0.525919	0.419183
212	H	0.089438	0.545118	0.418621
213	C	0.362779	0.722402	0.667357
214	N	0.388165	0.694478	0.667367
215	C	0.36278	0.64117	0.667357
216	N	0.309469	0.615782	0.667367
217	C	0.281544	0.641166	0.667357
218	N	0.309469	0.694478	0.667367
219	C	0.390779	0.613168	0.667454
220	C	0.446377	0.639892	0.667581
221	C	0.474045	0.612388	0.667932
222	C	0.446836	0.557112	0.66813
223	C	0.391559	0.529901	0.667932
224	C	0.364056	0.55757	0.667578
225	C	0.390779	0.778403	0.667454
226	C	0.446377	0.807275	0.667578
227	C	0.474045	0.862449	0.667926
228	C	0.446834	0.890514	0.668123
229	C	0.391558	0.862449	0.667929
230	C	0.364054	0.807275	0.667581
231	C	0.225545	0.613168	0.667454
232	C	0.196671	0.639892	0.667581
233	C	0.141499	0.612388	0.667926
234	C	0.113432	0.557112	0.66812
235	C	0.141499	0.529901	0.667926
236	C	0.196672	0.55757	0.667578
237	H	0.514178	0.881958	0.66827
238	H	0.467662	0.788488	0.667578
239	H	0.370934	0.881958	0.66827
240	H	0.323981	0.788488	0.667578
241	H	0.215461	0.679967	0.667578
242	H	0.121989	0.633013	0.66827
243	H	0.215461	0.536286	0.667581
244	H	0.121989	0.489767	0.66827
245	H	0.323982	0.536286	0.667578
246	H	0.370935	0.489767	0.66827
247	H	0.51418	0.633013	0.66827
248	H	0.467662	0.679967	0.667575
249	C	0.641955	0.280757	0.668076
250	N	0.61657	0.30868	0.668073
251	C	0.641955	0.36199	0.668076
252	N	0.695265	0.387377	0.668069
253	C	0.723191	0.36199	0.668076
254	N	0.695266	0.30868	0.668073
255	C	0.613957	0.389989	0.668016
256	C	0.558357	0.363265	0.667989
257	C	0.530691	0.390773	0.667962
258	C	0.557898	0.446047	0.667906
259	C	0.613173	0.473258	0.667959
260	C	0.640681	0.445588	0.667989
261	C	0.613959	0.224759	0.668016
262	C	0.558359	0.195884	0.667993
263	C	0.53069	0.140708	0.667962
264	C	0.557901	0.112642	0.667909
265	C	0.613175	0.140708	0.667962
266	C	0.640681	0.195884	0.667993
267	C	0.779188	0.38999	0.668016
268	C	0.808061	0.363265	0.667993
269	C	0.863238	0.390773	0.667962
270	C	0.891303	0.446047	0.667909
271	C	0.86324	0.473258	0.667962
272	C	0.808063	0.445588	0.667993
273	H	0.490555	0.1212	0.668043
274	H	0.537074	0.214673	0.668046
275	H	0.633802	0.1212	0.668043
276	H	0.680756	0.214674	0.668049
277	H	0.789273	0.323191	0.668046
278	H	0.882745	0.370144	0.668043
279	H	0.789271	0.466872	0.668046
280	H	0.882743	0.513391	0.668043
281	H	0.680754	0.466872	0.668046
282	H	0.6338	0.513391	0.668043
283	H	0.490554	0.370144	0.668043
284	H	0.537074	0.323191	0.668046
285	C	0.530193	0.473751	0.001643
286	C	0.515969	0.48798	0.961225
287	C	0.488416	0.515532	0.961797
288	C	0.474566	0.52938	0.669407
289	C	0.488751	0.515195	0.710419
290	H	0.478544	0.525401	0.93197
291	H	0.525544	0.4784	0.931137
292	C	0.5164	0.487545	0.709219
293	H	0.52661	0.477338	0.738725
294	O	0.47803	0.525919	0.752522
295	H	0.45883	0.545106	0.75196
296	C	0.530196	0.057232	0.001644
297	C	0.515971	0.028782	0.961225
298	C	0.488418	0.973679	0.961794
299	C	0.474565	0.945974	0.669404
300	C	0.488749	0.974345	0.710419
301	H	0.478547	0.953935	0.931967
302	H	0.525549	0.047937	0.931137
303	C	0.516399	0.029644	0.709219
304	H	0.526607	0.05006	0.738725
305	O	0.478023	0.9529	0.752519
306	H	0.458849	0.914511	0.751957
307	C	0.946715	0.473751	0.001645
308	C	0.975162	0.487976	0.961225
309	C	0.057971	0.52938	0.6694
310	H	0.050009	0.525401	0.931967
311	H	0.956008	0.4784	0.931137
312	C	0.974303	0.487549	0.709219
313	H	0.953888	0.477338	0.738729
314	O	0.051051	0.525919	0.752515
315	H	0.089438	0.545118	0.751953
