data_C189H126N18_2018-02-15_10:42:17
#******************************************
#
# CIF file created by Zeo++
# Zeo++ is an open source package to
# analyze microporous materials
#
#*******************************************

_cell_length_a		29.4679   
_cell_length_b		29.468   
_cell_length_c		29.9128   
_cell_angle_alpha		90   
_cell_angle_beta		90   
_cell_angle_gamma		120   

_symmetry_space_group_name_H-M		'P1'
_symmetry_Int_Tables_number		1
_symmetry_cell_setting		Monoclinic

loop_
_symmetry_equiv_pos_as_xyz
'+x,+y,+z'

loop_
_atom_site_label
_atom_site_type_symbol
_atom_site_fract_x
_atom_site_fract_y
_atom_site_fract_z
1	C	0.030452	0.515592	0.042802
2	C	0.029474	0.515102	0.294825
3	C	0.030452	0.515592	0.376137
4	C	0.029474	0.515102	0.628159
5	C	0.030452	0.515592	0.709469
6	C	0.029474	0.515102	0.961492
7	C	0.362584	0.722249	0.001428
8	N	0.38798	0.694354	0.001428
9	C	0.362584	0.641062	0.001428
10	N	0.309292	0.615666	0.001428
11	C	0.281397	0.641062	0.001428
12	N	0.309292	0.694354	0.001428
13	C	0.390557	0.613092	0.001404
14	C	0.446141	0.639816	0.001415
15	C	0.473803	0.612304	0.001441
16	C	0.446607	0.557038	0.001398
17	C	0.391342	0.529843	0.001441
18	C	0.363833	0.557508	0.001411
19	C	0.390557	0.778194	0.001404
20	C	0.44614	0.807054	0.001411
21	C	0.473803	0.862226	0.001441
22	C	0.446609	0.890298	0.001394
23	C	0.391342	0.862226	0.001441
24	C	0.363833	0.807054	0.001415
25	C	0.225453	0.613092	0.001404
26	C	0.196594	0.639816	0.001415
27	C	0.141419	0.612304	0.001441
28	C	0.113348	0.557038	0.001394
29	C	0.141419	0.529843	0.001441
30	C	0.196593	0.557508	0.001411
31	H	0.513924	0.881713	0.00155
32	H	0.467425	0.788276	0.001458
33	H	0.370708	0.881713	0.00155
34	H	0.32377	0.788276	0.001458
35	H	0.215372	0.679879	0.001458
36	H	0.121933	0.632939	0.00155
37	H	0.215371	0.536223	0.001458
38	H	0.121931	0.489722	0.00155
39	H	0.323769	0.536223	0.001455
40	H	0.370708	0.489722	0.00155
41	H	0.513925	0.632939	0.001549
42	H	0.467425	0.679879	0.001455
43	C	0.641784	0.280652	0.001384
44	N	0.616394	0.308562	0.001381
45	C	0.641785	0.361861	0.001384
46	N	0.695084	0.387251	0.001381
47	C	0.722996	0.361861	0.001381
48	N	0.695087	0.308562	0.001381
49	C	0.613802	0.389844	0.001284
50	C	0.558219	0.363135	0.001264
51	C	0.530555	0.390649	0.001411
52	C	0.557724	0.445921	0.001594
53	C	0.612997	0.473092	0.001404
54	C	0.640511	0.445427	0.001264
55	C	0.613801	0.224686	0.001284
56	C	0.558217	0.195811	0.001267
57	C	0.530554	0.140634	0.001411
58	C	0.557723	0.112531	0.001594
59	C	0.612999	0.140634	0.001411
60	C	0.64051	0.195811	0.001264
61	C	0.778962	0.389844	0.001284
62	C	0.807836	0.363135	0.001264
63	C	0.863014	0.390648	0.001411
64	C	0.891115	0.445921	0.001597
65	C	0.863015	0.473092	0.001398
66	C	0.807836	0.445427	0.001264
67	H	0.490438	0.121147	0.001731
68	H	0.536931	0.214588	0.001338
69	H	0.633628	0.121147	0.001732
70	H	0.680572	0.214587	0.001341
71	H	0.789061	0.323073	0.001338
72	H	0.882501	0.370018	0.001733
73	H	0.78906	0.466713	0.001341
74	H	0.8825	0.513209	0.001737
75	H	0.680572	0.466713	0.001341
76	H	0.633629	0.513209	0.001734
77	H	0.490438	0.370018	0.001733
78	H	0.536932	0.323073	0.001341
79	C	0.474304	0.529346	0.00187
80	C	0.488056	0.515588	0.042802
81	C	0.51581	0.487837	0.044037
82	C	0.52995	0.473695	0.002997
83	C	0.516094	0.487555	0.295412
84	H	0.47765	0.525999	0.072092
85	C	0.488545	0.515102	0.294825
86	H	0.525952	0.477696	0.265581
87	H	0.478987	0.524663	0.264728
88	C	0.529511	0.474134	0.087952
89	H	0.515938	0.487712	0.116183
90	H	0.571987	0.491987	0.090719
91	H	0.511661	0.431662	0.090719
92	C	0.474303	0.945686	0.00187
93	C	0.488057	0.973194	0.042802
94	C	0.515812	0.028701	0.044037
95	C	0.529952	0.056982	0.002997
96	C	0.516095	0.029267	0.295412
97	H	0.477649	0.952379	0.072091
98	C	0.488545	0.97417	0.294825
99	H	0.525953	0.048984	0.265581
100	H	0.478987	0.955055	0.264727
101	C	0.529513	0.056103	0.087952
102	H	0.515938	0.028954	0.116183
103	H	0.511659	0.080727	0.090719
104	H	0.571986	0.080727	0.090719
105	C	0.057959	0.529346	0.001869
106	C	0.974949	0.487837	0.044038
107	C	0.946665	0.473695	0.002998
108	C	0.97438	0.487555	0.295413
109	H	0.051268	0.525999	0.072091
110	H	0.954662	0.477696	0.265582
111	H	0.04859	0.524659	0.264727
112	C	0.947545	0.474138	0.087954
113	H	0.974696	0.487712	0.116184
114	H	0.922923	0.431662	0.090721
115	H	0.922921	0.491987	0.09072
116	C	0.362584	0.722249	0.334763
117	N	0.38798	0.694354	0.33476
118	C	0.362584	0.641062	0.334763
119	N	0.309292	0.615666	0.33476
120	C	0.281397	0.641062	0.334763
121	N	0.309292	0.694354	0.33476
122	C	0.390557	0.613092	0.33474
123	C	0.446141	0.639816	0.334746
124	C	0.473803	0.612304	0.334773
125	C	0.446607	0.557038	0.33473
126	C	0.391342	0.529843	0.334773
127	C	0.363833	0.557508	0.334746
128	C	0.390557	0.778194	0.33474
129	C	0.44614	0.807054	0.334746
130	C	0.473803	0.862226	0.334773
131	C	0.446609	0.890298	0.33473
132	C	0.391342	0.862226	0.334773
133	C	0.363833	0.807054	0.334746
134	C	0.225453	0.613092	0.33474
135	C	0.196594	0.639816	0.334746
136	C	0.141419	0.612304	0.334773
137	C	0.113348	0.557038	0.334726
138	C	0.141419	0.529843	0.334773
139	C	0.196593	0.557508	0.334746
140	H	0.513924	0.881713	0.334884
141	H	0.467425	0.788276	0.33479
142	H	0.370708	0.881713	0.334884
143	H	0.32377	0.788276	0.33479
144	H	0.215372	0.679879	0.33479
145	H	0.121933	0.632939	0.334884
146	H	0.215371	0.536223	0.33479
147	H	0.121931	0.489722	0.334884
148	H	0.323769	0.536223	0.33479
149	H	0.370708	0.489722	0.334884
150	H	0.513925	0.632939	0.334884
151	H	0.467425	0.679879	0.33479
152	C	0.641784	0.280652	0.334716
153	N	0.616394	0.308562	0.334716
154	C	0.641785	0.361861	0.334716
155	N	0.695084	0.387251	0.334716
156	C	0.722996	0.361861	0.334716
157	N	0.695087	0.308562	0.334716
158	C	0.613802	0.389844	0.334619
159	C	0.558219	0.363135	0.334596
160	C	0.530555	0.390649	0.334743
161	C	0.557724	0.445921	0.334927
162	C	0.612997	0.473092	0.33474
163	C	0.640511	0.445427	0.334599
164	C	0.613801	0.224686	0.334619
165	C	0.558217	0.195811	0.334603
166	C	0.530554	0.140634	0.334743
167	C	0.557723	0.112531	0.334927
168	C	0.612999	0.140634	0.334743
169	C	0.64051	0.195811	0.334596
170	C	0.778962	0.389844	0.334619
171	C	0.807836	0.363135	0.334599
172	C	0.863014	0.390648	0.334743
173	C	0.891115	0.445921	0.33493
174	C	0.863015	0.473092	0.334733
175	C	0.807836	0.445427	0.334596
176	H	0.490438	0.121147	0.335064
177	H	0.536931	0.214588	0.334673
178	H	0.633628	0.121147	0.335064
179	H	0.680572	0.214587	0.334673
180	H	0.789061	0.323073	0.33467
181	H	0.882501	0.370018	0.335067
182	H	0.78906	0.466713	0.334673
183	H	0.8825	0.513209	0.335071
184	H	0.680572	0.466713	0.334676
185	H	0.633629	0.513209	0.335067
186	H	0.490438	0.370018	0.335067
187	H	0.536932	0.323073	0.334673
188	C	0.474304	0.529346	0.335204
189	C	0.488056	0.515588	0.376137
190	C	0.51581	0.487837	0.37737
191	C	0.52995	0.473695	0.336331
192	C	0.516094	0.487555	0.628744
193	H	0.47765	0.525999	0.405425
194	C	0.488545	0.515102	0.628159
195	H	0.525952	0.477696	0.598914
196	H	0.478987	0.524663	0.598062
197	C	0.529511	0.474134	0.421285
198	H	0.515938	0.487712	0.449517
199	H	0.571987	0.491987	0.424053
200	H	0.511661	0.431662	0.424053
201	C	0.474303	0.945686	0.335204
202	C	0.488057	0.973194	0.376137
203	C	0.515812	0.028701	0.37737
204	C	0.529952	0.056982	0.336331
205	C	0.516095	0.029267	0.628744
206	H	0.477649	0.952379	0.405425
207	C	0.488545	0.97417	0.628159
208	H	0.525953	0.048984	0.598914
209	H	0.478987	0.955055	0.598062
210	C	0.529513	0.056103	0.421285
211	H	0.515938	0.028954	0.449517
212	H	0.511659	0.080727	0.424053
213	H	0.571986	0.080727	0.424053
214	C	0.057959	0.529346	0.335201
215	C	0.974949	0.487837	0.37737
216	C	0.946665	0.473695	0.336331
217	C	0.97438	0.487555	0.628744
218	H	0.051268	0.525999	0.405425
219	H	0.954662	0.477696	0.598914
220	H	0.04859	0.524659	0.598059
221	C	0.947545	0.474138	0.421288
222	H	0.974696	0.487712	0.449517
223	H	0.922923	0.431662	0.424053
224	H	0.922921	0.491987	0.424053
225	C	0.362584	0.722249	0.668096
226	N	0.38798	0.694354	0.668092
227	C	0.362584	0.641062	0.668096
228	N	0.309292	0.615666	0.668092
229	C	0.281397	0.641062	0.668096
230	N	0.309292	0.694354	0.668096
231	C	0.390557	0.613092	0.668072
232	C	0.446141	0.639816	0.668079
233	C	0.473803	0.612304	0.668109
234	C	0.446607	0.557038	0.668062
235	C	0.391342	0.529843	0.668109
236	C	0.363833	0.557508	0.668079
237	C	0.390557	0.778194	0.668072
238	C	0.44614	0.807054	0.668079
239	C	0.473803	0.862226	0.668106
240	C	0.446609	0.890298	0.668062
241	C	0.391342	0.862226	0.668109
242	C	0.363833	0.807054	0.668079
243	C	0.225453	0.613092	0.668072
244	C	0.196594	0.639816	0.668079
245	C	0.141419	0.612304	0.668106
246	C	0.113348	0.557038	0.668062
247	C	0.141419	0.529843	0.668106
248	C	0.196593	0.557508	0.668079
249	H	0.513924	0.881713	0.668216
250	H	0.467425	0.788276	0.668126
251	H	0.370708	0.881713	0.668216
252	H	0.32377	0.788276	0.668122
253	H	0.215372	0.679879	0.668122
254	H	0.121933	0.632939	0.668216
255	H	0.215371	0.536223	0.668126
256	H	0.121931	0.489722	0.668216
257	H	0.323769	0.536223	0.668122
258	H	0.370708	0.489722	0.668216
259	H	0.513925	0.632939	0.668216
260	H	0.467425	0.679879	0.668122
261	C	0.641784	0.280652	0.668049
262	N	0.616394	0.308562	0.668049
263	C	0.641785	0.361861	0.668049
264	N	0.695084	0.387251	0.668049
265	C	0.722996	0.361861	0.668049
266	N	0.695087	0.308562	0.668049
267	C	0.613802	0.389844	0.667952
268	C	0.558219	0.363135	0.667928
269	C	0.530555	0.390649	0.668079
270	C	0.557724	0.445921	0.668259
271	C	0.612997	0.473092	0.668072
272	C	0.640511	0.445427	0.667932
273	C	0.613801	0.224686	0.667952
274	C	0.558217	0.195811	0.667935
275	C	0.530554	0.140634	0.668079
276	C	0.557723	0.112531	0.668259
277	C	0.612999	0.140634	0.668075
278	C	0.64051	0.195811	0.667932
279	C	0.778962	0.389844	0.667952
280	C	0.807836	0.363135	0.667932
281	C	0.863014	0.390648	0.668075
282	C	0.891115	0.445921	0.668263
283	C	0.863015	0.473092	0.668065
284	C	0.807836	0.445427	0.667928
285	H	0.490438	0.121147	0.668396
286	H	0.536931	0.214588	0.668005
287	H	0.633628	0.121147	0.6684
288	H	0.680572	0.214587	0.668009
289	H	0.789061	0.323073	0.668002
290	H	0.882501	0.370018	0.6684
291	H	0.78906	0.466713	0.668009
292	H	0.8825	0.513209	0.668403
293	H	0.680572	0.466713	0.668009
294	H	0.633629	0.513209	0.6684
295	H	0.490438	0.370018	0.6684
296	H	0.536932	0.323073	0.668009
297	C	0.474304	0.529346	0.668537
298	C	0.488056	0.515588	0.709469
299	C	0.51581	0.487837	0.710703
300	C	0.52995	0.473695	0.669663
301	C	0.516094	0.487555	0.962077
302	H	0.47765	0.525999	0.738758
303	C	0.488545	0.515102	0.961492
304	H	0.525952	0.477696	0.932247
305	H	0.478987	0.524663	0.931394
306	C	0.529511	0.474134	0.75462
307	H	0.515938	0.487712	0.782849
308	H	0.571987	0.491987	0.757385
309	H	0.511661	0.431662	0.757385
310	C	0.474303	0.945686	0.668537
311	C	0.488057	0.973194	0.709469
312	C	0.515812	0.028701	0.710703
313	C	0.529952	0.056982	0.669663
314	C	0.516095	0.029267	0.962077
315	H	0.477649	0.952379	0.738758
316	C	0.488545	0.97417	0.961492
317	H	0.525953	0.048984	0.932247
318	H	0.478987	0.955055	0.931394
319	C	0.529513	0.056103	0.75462
320	H	0.515938	0.028954	0.782849
321	H	0.511659	0.080727	0.757385
322	H	0.571986	0.080727	0.757385
323	C	0.057959	0.529346	0.668537
324	C	0.974949	0.487837	0.710706
325	C	0.946665	0.473695	0.669663
326	C	0.97438	0.487555	0.96208
327	H	0.051268	0.525999	0.738758
328	H	0.954662	0.477696	0.93225
329	H	0.04859	0.524659	0.931394
330	C	0.947545	0.474138	0.75462
331	H	0.974696	0.487712	0.782849
332	H	0.922923	0.431662	0.757388
333	H	0.922921	0.491987	0.757385
