data_C198H108N36_2018-02-15_10:42:18
#******************************************
#
# CIF file created by Zeo++
# Zeo++ is an open source package to
# analyze microporous materials
#
#*******************************************

_cell_length_a		29.4785   
_cell_length_b		29.4786   
_cell_length_c		29.9012   
_cell_angle_alpha		90   
_cell_angle_beta		90   
_cell_angle_gamma		120   

_symmetry_space_group_name_H-M		'P1'
_symmetry_Int_Tables_number		1
_symmetry_cell_setting		Monoclinic

loop_
_symmetry_equiv_pos_as_xyz
'+x,+y,+z'

loop_
_atom_site_label
_atom_site_type_symbol
_atom_site_fract_x
_atom_site_fract_y
_atom_site_fract_z
1	C	0.030353	0.51559	0.043239
2	C	0.030033	0.515429	0.295075
3	C	0.02998	0.515402	0.123209
4	C	0.030353	0.51559	0.376574
5	C	0.030033	0.515429	0.628407
6	C	0.02998	0.515402	0.456541
7	C	0.030353	0.51559	0.709905
8	C	0.030033	0.515429	0.961741
9	C	0.02998	0.515402	0.789875
10	H	0.050581	0.525704	0.152477
11	H	0.049416	0.52512	0.265095
12	H	0.050581	0.525704	0.48581
13	H	0.049416	0.52512	0.598428
14	H	0.050581	0.525704	0.819145
15	H	0.049416	0.52512	0.931763
16	C	0.362865	0.722424	0.001529
17	N	0.388239	0.694534	0.001526
18	C	0.362864	0.641266	0.001529
19	N	0.3096	0.615895	0.001526
20	C	0.281707	0.641266	0.001529
21	N	0.309601	0.694534	0.001526
22	C	0.390845	0.613286	0.001482
23	C	0.446403	0.64	0.001496
24	C	0.474046	0.612518	0.001539
25	C	0.446847	0.557283	0.001462
26	C	0.391615	0.530087	0.001539
27	C	0.36413	0.55773	0.001496
28	C	0.390845	0.778383	0.001482
29	C	0.446404	0.807228	0.001496
30	C	0.474045	0.862353	0.001536
31	C	0.446847	0.890388	0.001459
32	C	0.391614	0.862353	0.001539
33	C	0.36413	0.807228	0.001499
34	C	0.225747	0.613286	0.001486
35	C	0.196904	0.64	0.001499
36	C	0.141777	0.612518	0.001536
37	C	0.113741	0.557283	0.001455
38	C	0.141778	0.530087	0.001536
39	C	0.196905	0.55773	0.001496
40	H	0.514146	0.881857	0.001754
41	H	0.467668	0.78845	0.001586
42	H	0.371016	0.881857	0.001753
43	H	0.324087	0.78845	0.001586
44	H	0.215683	0.680045	0.001586
45	H	0.122274	0.633114	0.001753
46	H	0.215683	0.536464	0.001589
47	H	0.122274	0.489984	0.001754
48	H	0.324086	0.536464	0.001586
49	H	0.371015	0.489984	0.001753
50	H	0.514146	0.633114	0.001752
51	H	0.467668	0.680045	0.001583
52	C	0.642091	0.280881	0.001529
53	N	0.616717	0.308773	0.001526
54	C	0.642091	0.362038	0.001529
55	N	0.695356	0.387411	0.001526
56	C	0.723248	0.362038	0.001529
57	N	0.695357	0.308773	0.001526
58	C	0.614112	0.390018	0.001486
59	C	0.558554	0.363303	0.001496
60	C	0.530911	0.390787	0.001539
61	C	0.55811	0.446022	0.001455
62	C	0.613342	0.473219	0.001536
63	C	0.640829	0.445576	0.001496
64	C	0.614111	0.22492	0.001482
65	C	0.558554	0.196077	0.001499
66	C	0.530913	0.14095	0.001539
67	C	0.558108	0.112915	0.001462
68	C	0.613342	0.140951	0.001539
69	C	0.640828	0.196078	0.001496
70	C	0.779208	0.390018	0.001482
71	C	0.808054	0.363302	0.001496
72	C	0.863179	0.390787	0.001539
73	C	0.891216	0.446019	0.001462
74	C	0.863179	0.473219	0.001536
75	C	0.808053	0.445576	0.001496
76	H	0.49081	0.121448	0.001752
77	H	0.537291	0.214855	0.001583
78	H	0.633942	0.121448	0.001753
79	H	0.68087	0.214856	0.001586
80	H	0.789274	0.32326	0.001583
81	H	0.882682	0.370189	0.001753
82	H	0.789274	0.466842	0.001586
83	H	0.882682	0.513318	0.001754
84	H	0.68087	0.466842	0.001586
85	H	0.633942	0.513318	0.001753
86	H	0.490811	0.37019	0.001753
87	H	0.537287	0.32326	0.001589
88	C	0.53038	0.473752	0.002347
89	C	0.516416	0.487716	0.043239
90	C	0.488543	0.51559	0.04324
91	C	0.474577	0.529554	0.002349
92	C	0.4887	0.515429	0.295076
93	C	0.516256	0.487877	0.295075
94	N	0.475973	0.528156	0.083432
95	C	0.488731	0.515402	0.12321
96	C	0.516228	0.4879	0.123209
97	N	0.528984	0.475146	0.083431
98	H	0.47843	0.5257	0.152479
99	H	0.526529	0.477602	0.152477
100	H	0.525946	0.478182	0.265095
101	H	0.479009	0.525124	0.265096
102	C	0.530382	0.057455	0.002349
103	C	0.516417	0.029526	0.04324
104	C	0.488543	0.973779	0.04324
105	C	0.474578	0.94585	0.002348
106	C	0.488701	0.974096	0.295076
107	C	0.516258	0.029209	0.295076
108	N	0.475973	0.948639	0.083432
109	C	0.488728	0.974151	0.123209
110	C	0.516229	0.029151	0.12321
111	N	0.528985	0.054663	0.083432
112	H	0.478428	0.953551	0.152478
113	H	0.526526	0.049751	0.152479
114	H	0.52595	0.048593	0.265096
115	H	0.479011	0.954714	0.265096
116	C	0.946675	0.473752	0.002349
117	C	0.974605	0.487716	0.04324
118	C	0.058282	0.529554	0.002347
119	C	0.974921	0.487873	0.295076
120	N	0.055492	0.52816	0.083431
121	C	0.97498	0.487904	0.12321
122	N	0.949469	0.475146	0.083432
123	H	0.954381	0.477602	0.152479
124	H	0.955536	0.478182	0.265096
125	C	0.362865	0.722424	0.334863
126	N	0.388239	0.694534	0.33486
127	C	0.362864	0.641266	0.334863
128	N	0.3096	0.615895	0.33486
129	C	0.281707	0.641266	0.334863
130	N	0.309601	0.694534	0.33486
131	C	0.390845	0.613286	0.334816
132	C	0.446403	0.64	0.33483
133	C	0.474046	0.612518	0.334873
134	C	0.446847	0.557283	0.334796
135	C	0.391615	0.530087	0.334873
136	C	0.36413	0.55773	0.33483
137	C	0.390845	0.778383	0.334816
138	C	0.446404	0.807228	0.33483
139	C	0.474045	0.862353	0.33487
140	C	0.446847	0.890388	0.334793
141	C	0.391614	0.862353	0.334873
142	C	0.36413	0.807228	0.33483
143	C	0.225747	0.613286	0.33482
144	C	0.196904	0.64	0.334833
145	C	0.141777	0.612518	0.33487
146	C	0.113741	0.557283	0.334789
147	C	0.141778	0.530087	0.33487
148	C	0.196905	0.55773	0.33483
149	H	0.514146	0.881857	0.335087
150	H	0.467668	0.78845	0.33492
151	H	0.371016	0.881857	0.335087
152	H	0.324087	0.78845	0.33492
153	H	0.215683	0.680045	0.33492
154	H	0.122274	0.633114	0.335087
155	H	0.215683	0.536464	0.334923
156	H	0.122274	0.489984	0.335087
157	H	0.324086	0.536464	0.33492
158	H	0.371015	0.489984	0.335087
159	H	0.514146	0.633114	0.335084
160	H	0.467668	0.680045	0.334917
161	C	0.642091	0.280881	0.334863
162	N	0.616717	0.308773	0.33486
163	C	0.642091	0.362038	0.334863
164	N	0.695356	0.387411	0.33486
165	C	0.723248	0.362038	0.334863
166	N	0.695357	0.308773	0.33486
167	C	0.614112	0.390018	0.33482
168	C	0.558554	0.363303	0.33483
169	C	0.530911	0.390787	0.334873
170	C	0.55811	0.446022	0.334789
171	C	0.613342	0.473219	0.33487
172	C	0.640829	0.445576	0.33483
173	C	0.614111	0.22492	0.334816
174	C	0.558554	0.196077	0.334833
175	C	0.530913	0.14095	0.334873
176	C	0.558108	0.112915	0.334796
177	C	0.613342	0.140951	0.334873
178	C	0.640828	0.196078	0.33483
179	C	0.779208	0.390018	0.334816
180	C	0.808054	0.363302	0.33483
181	C	0.863179	0.390787	0.334873
182	C	0.891216	0.446019	0.334796
183	C	0.863179	0.473219	0.33487
184	C	0.808053	0.445576	0.33483
185	H	0.49081	0.121448	0.335084
186	H	0.537291	0.214855	0.334917
187	H	0.633942	0.121448	0.335087
188	H	0.68087	0.214856	0.33492
189	H	0.789274	0.32326	0.334917
190	H	0.882682	0.370189	0.335087
191	H	0.789274	0.466842	0.33492
192	H	0.882682	0.513318	0.335087
193	H	0.68087	0.466842	0.33492
194	H	0.633942	0.513318	0.335087
195	H	0.490811	0.37019	0.335087
196	H	0.537287	0.32326	0.33492
197	C	0.53038	0.473752	0.335679
198	C	0.516416	0.487716	0.376574
199	C	0.488543	0.51559	0.376574
200	C	0.474577	0.529554	0.335682
201	C	0.4887	0.515429	0.62841
202	C	0.516256	0.487877	0.628407
203	N	0.475973	0.528156	0.416766
204	C	0.488731	0.515402	0.456544
205	C	0.516228	0.4879	0.456541
206	N	0.528984	0.475146	0.416763
207	H	0.47843	0.5257	0.48581
208	H	0.526529	0.477602	0.48581
209	H	0.525946	0.478182	0.598428
210	H	0.479009	0.525124	0.598428
211	C	0.530382	0.057455	0.335682
212	C	0.516417	0.029526	0.376574
213	C	0.488543	0.973779	0.376574
214	C	0.474578	0.94585	0.335682
215	C	0.488701	0.974096	0.62841
216	C	0.516258	0.029209	0.62841
217	N	0.475973	0.948639	0.416766
218	C	0.488728	0.974151	0.456544
219	C	0.516229	0.029151	0.456544
220	N	0.528985	0.054663	0.416766
221	H	0.478428	0.953551	0.48581
222	H	0.526526	0.049751	0.48581
223	H	0.52595	0.048593	0.598428
224	H	0.479011	0.954714	0.598428
225	C	0.946675	0.473752	0.335682
226	C	0.974605	0.487716	0.376574
227	C	0.058282	0.529554	0.335679
228	C	0.974921	0.487873	0.62841
229	N	0.055492	0.52816	0.416763
230	C	0.97498	0.487904	0.456544
231	N	0.949469	0.475146	0.416766
232	H	0.954381	0.477602	0.48581
233	H	0.955536	0.478182	0.598428
234	C	0.362865	0.722424	0.668198
235	N	0.388239	0.694534	0.668194
236	C	0.362864	0.641266	0.668194
237	N	0.3096	0.615895	0.668194
238	C	0.281707	0.641266	0.668198
239	N	0.309601	0.694534	0.668194
240	C	0.390845	0.613286	0.668151
241	C	0.446403	0.64	0.668164
242	C	0.474046	0.612518	0.668204
243	C	0.446847	0.557283	0.668127
244	C	0.391615	0.530087	0.668204
245	C	0.36413	0.55773	0.668161
246	C	0.390845	0.778383	0.668151
247	C	0.446404	0.807228	0.668161
248	C	0.474045	0.862353	0.668204
249	C	0.446847	0.890388	0.668124
250	C	0.391614	0.862353	0.668204
251	C	0.36413	0.807228	0.668164
252	C	0.225747	0.613286	0.668151
253	C	0.196904	0.64	0.668164
254	C	0.141777	0.612518	0.668204
255	C	0.113741	0.557283	0.668124
256	C	0.141778	0.530087	0.668204
257	C	0.196905	0.55773	0.668164
258	H	0.514146	0.881857	0.668418
259	H	0.467668	0.78845	0.668255
260	H	0.371016	0.881857	0.668418
261	H	0.324087	0.78845	0.668251
262	H	0.215683	0.680045	0.668255
263	H	0.122274	0.633114	0.668418
264	H	0.215683	0.536464	0.668255
265	H	0.122274	0.489984	0.668422
266	H	0.324086	0.536464	0.668251
267	H	0.371015	0.489984	0.668418
268	H	0.514146	0.633114	0.668418
269	H	0.467668	0.680045	0.668251
270	C	0.642091	0.280881	0.668194
271	N	0.616717	0.308773	0.668194
272	C	0.642091	0.362038	0.668198
273	N	0.695356	0.387411	0.668194
274	C	0.723248	0.362038	0.668194
275	N	0.695357	0.308773	0.668194
276	C	0.614112	0.390018	0.668151
277	C	0.558554	0.363303	0.668164
278	C	0.530911	0.390787	0.668204
279	C	0.55811	0.446022	0.668124
280	C	0.613342	0.473219	0.668204
281	C	0.640829	0.445576	0.668164
282	C	0.614111	0.22492	0.668151
283	C	0.558554	0.196077	0.668164
284	C	0.530913	0.14095	0.668204
285	C	0.558108	0.112915	0.668127
286	C	0.613342	0.140951	0.668204
287	C	0.640828	0.196078	0.668161
288	C	0.779208	0.390018	0.668151
289	C	0.808054	0.363302	0.668164
290	C	0.863179	0.390787	0.668204
291	C	0.891216	0.446019	0.668127
292	C	0.863179	0.473219	0.668201
293	C	0.808053	0.445576	0.668161
294	H	0.49081	0.121448	0.668418
295	H	0.537291	0.214855	0.668251
296	H	0.633942	0.121448	0.668418
297	H	0.68087	0.214856	0.668251
298	H	0.789274	0.32326	0.668251
299	H	0.882682	0.370189	0.668418
300	H	0.789274	0.466842	0.668251
301	H	0.882682	0.513318	0.668422
302	H	0.68087	0.466842	0.668255
303	H	0.633942	0.513318	0.668418
304	H	0.490811	0.37019	0.668418
305	H	0.537287	0.32326	0.668255
306	C	0.53038	0.473752	0.669014
307	C	0.516416	0.487716	0.709905
308	C	0.488543	0.51559	0.709905
309	C	0.474577	0.529554	0.669014
310	C	0.4887	0.515429	0.961741
311	C	0.516256	0.487877	0.961741
312	N	0.475973	0.528156	0.750097
313	C	0.488731	0.515402	0.789875
314	C	0.516228	0.4879	0.789875
315	N	0.528984	0.475146	0.750097
316	H	0.47843	0.5257	0.819145
317	H	0.526529	0.477602	0.819145
318	H	0.525946	0.478182	0.931763
319	H	0.479009	0.525124	0.931763
320	C	0.530382	0.057455	0.669014
321	C	0.516417	0.029526	0.709905
322	C	0.488543	0.973779	0.709905
323	C	0.474578	0.94585	0.669014
324	C	0.488701	0.974096	0.961741
325	C	0.516258	0.029209	0.961741
326	N	0.475973	0.948639	0.750097
327	C	0.488728	0.974151	0.789875
328	C	0.516229	0.029151	0.789875
329	N	0.528985	0.054663	0.750097
330	H	0.478428	0.953551	0.819145
331	H	0.526526	0.049751	0.819145
332	H	0.52595	0.048593	0.931763
333	H	0.479011	0.954714	0.931763
334	C	0.946675	0.473752	0.669014
335	C	0.974605	0.487716	0.709905
336	C	0.058282	0.529554	0.669014
337	C	0.974921	0.487873	0.961741
338	N	0.055492	0.52816	0.750097
339	C	0.97498	0.487904	0.789875
340	N	0.949469	0.475146	0.750097
341	H	0.954381	0.477602	0.819145
342	H	0.955536	0.478182	0.931763
