data_C360H216N144O72_2018-02-15_10:32:48
#******************************************
#
# CIF file created by Zeo++
# Zeo++ is an open source package to
# analyze microporous materials
#
#*******************************************

_cell_length_a		43.6363   
_cell_length_b		43.6364   
_cell_length_c		30.119   
_cell_angle_alpha		90   
_cell_angle_beta		90   
_cell_angle_gamma		120   

_symmetry_space_group_name_H-M		'P1'
_symmetry_Int_Tables_number		1
_symmetry_cell_setting		Monoclinic

loop_
_symmetry_equiv_pos_as_xyz
'+x,+y,+z'

loop_
_atom_site_label
_atom_site_type_symbol
_atom_site_fract_x
_atom_site_fract_y
_atom_site_fract_z
1	C	0.174847	0.368461	0.043036
2	C	0.138566	0.342139	0.043341
3	C	0.126575	0.305389	0.043123
4	C	0.152902	0.295434	0.043373
5	C	0.189654	0.320194	0.376433
6	C	0.199618	0.356481	0.04337
7	H	0.14482	0.269213	0.040725
8	H	0.225829	0.374608	0.040595
9	H	0.120427	0.35022	0.040671
10	C	0.185074	0.404761	0.037291
11	C	0.215734	0.309975	0.370686
12	C	0.090275	0.279305	0.03741
13	O	0.250101	0.335963	0.034496
14	O	0.159084	0.413134	0.034387
15	O	0.081897	0.244937	0.03456
16	C	0.319588	0.127734	0.95343
17	C	0.355784	0.15422	0.953035
18	C	0.367349	0.190876	0.953377
19	C	0.340854	0.200575	0.953049
20	C	0.304197	0.17549	0.286713
21	C	0.294495	0.139295	0.953055
22	H	0.348709	0.226773	0.955728
23	H	0.268297	0.120957	0.955751
24	H	0.374126	0.146368	0.955754
25	C	0.309494	0.091546	0.959453
26	C	0.278103	0.18558	0.292762
27	C	0.403533	0.216973	0.95942
28	O	0.244692	0.159936	0.969862
29	O	0.335135	0.08378	0.969908
30	O	0.41129	0.250372	0.969908
31	C	0.21911	0.227201	0.022971
32	N	0.23718	0.213323	0.002851
33	C	0.26476	0.232397	0.308252
34	N	0.274128	0.266686	0.300834
35	C	0.25716	0.282108	0.320022
36	C	0.228681	0.263049	0.016518
37	H	0.198593	0.211128	0.043423
38	H	0.264926	0.307363	0.310629
39	N	0.208934	0.275836	0.035894
40	H	0.187342	0.258282	0.050403
41	N	0.284513	0.219512	0.289964
42	H	0.3055	0.236647	0.273954
43	C	0.267853	0.490924	0.022981
44	N	0.281733	0.022879	0.00288
45	C	0.262671	0.031386	0.308262
46	N	0.228388	0.006463	0.300816
47	C	0.212953	0.474075	0.320012
48	C	0.232013	0.464639	0.016486
49	H	0.283915	0.486481	0.043454
50	H	0.187726	0.456571	0.310539
51	N	0.219215	0.432101	0.035855
52	H	0.236762	0.428061	0.050376
53	N	0.275562	0.064025	0.289977
54	H	0.258431	0.067879	0.273958
55	C	0.004131	0.275939	0.023019
56	N	0.472189	0.25788	0.002883
57	C	0.463686	0.230305	0.308277
58	N	0.488605	0.220931	0.300868
59	C	0.020989	0.237888	0.320072
60	C	0.030405	0.266363	0.016573
61	H	0.008574	0.296455	0.043474
62	H	0.038476	0.230121	0.310685
63	N	0.062937	0.286106	0.035958
64	H	0.066978	0.307699	0.050468
65	N	0.431055	0.210561	0.28997
66	H	0.427206	0.189579	0.273949
67	C	0.174847	0.368461	0.37637
68	C	0.138566	0.342139	0.376675
69	C	0.126575	0.305389	0.376456
70	C	0.152902	0.295434	0.376705
71	C	0.189654	0.320194	0.709767
72	C	0.199618	0.356481	0.376702
73	H	0.14482	0.269213	0.374059
74	H	0.225829	0.374608	0.37393
75	H	0.120427	0.35022	0.374006
76	C	0.185074	0.404761	0.370626
77	C	0.215734	0.309975	0.70402
78	C	0.090275	0.279305	0.370742
79	O	0.250101	0.335963	0.367831
80	O	0.159084	0.413134	0.367721
81	O	0.081897	0.244937	0.367894
82	C	0.319588	0.127734	0.286762
83	C	0.355784	0.15422	0.286367
84	C	0.367349	0.190876	0.28671
85	C	0.340854	0.200575	0.286382
86	C	0.304197	0.17549	0.620046
87	C	0.294495	0.139295	0.286389
88	H	0.348709	0.226773	0.28906
89	H	0.268297	0.120957	0.289085
90	H	0.374126	0.146368	0.289087
91	C	0.309494	0.091546	0.292785
92	C	0.278103	0.18558	0.626096
93	C	0.403533	0.216973	0.292754
94	O	0.244692	0.159936	0.303195
95	O	0.335135	0.08378	0.30324
96	O	0.41129	0.250372	0.303241
97	C	0.21911	0.227201	0.356306
98	N	0.23718	0.213323	0.336186
99	C	0.26476	0.232397	0.641584
100	N	0.274128	0.266686	0.634167
101	C	0.25716	0.282108	0.653354
102	C	0.228681	0.263049	0.349852
103	H	0.198593	0.211128	0.376755
104	H	0.264926	0.307363	0.643962
105	N	0.208934	0.275836	0.369228
106	H	0.187342	0.258282	0.383737
107	N	0.284513	0.219512	0.623297
108	H	0.3055	0.236647	0.607287
109	C	0.267853	0.490924	0.356316
110	N	0.281733	0.022879	0.336213
111	C	0.262671	0.031386	0.641594
112	N	0.228388	0.006463	0.634151
113	C	0.212953	0.474075	0.653344
114	C	0.232013	0.464639	0.349819
115	H	0.283915	0.486481	0.376788
116	H	0.187726	0.456571	0.643872
117	N	0.219215	0.432101	0.369188
118	H	0.236762	0.428061	0.383711
119	N	0.275562	0.064025	0.62331
120	H	0.258431	0.067879	0.60729
121	C	0.004131	0.275939	0.356353
122	N	0.472189	0.25788	0.336216
123	C	0.463686	0.230305	0.641611
124	N	0.488605	0.220931	0.6342
125	C	0.020989	0.237888	0.653404
126	C	0.030405	0.266363	0.349908
127	H	0.008574	0.296455	0.376808
128	H	0.038476	0.230121	0.644018
129	N	0.062937	0.286106	0.369291
130	H	0.066978	0.307699	0.383801
131	N	0.431055	0.210561	0.623304
132	H	0.427206	0.189579	0.607284
133	C	0.174847	0.368461	0.709704
134	C	0.138566	0.342139	0.71001
135	C	0.126575	0.305389	0.70979
136	C	0.152902	0.295434	0.710039
137	C	0.189654	0.320194	0.0431
138	C	0.199618	0.356481	0.710036
139	H	0.14482	0.269213	0.707393
140	H	0.225829	0.374608	0.70726
141	H	0.120427	0.35022	0.70734
142	C	0.185074	0.404761	0.70396
143	C	0.215734	0.309975	0.037353
144	C	0.090275	0.279305	0.704076
145	O	0.250101	0.335963	0.701165
146	O	0.159084	0.413134	0.701055
147	O	0.081897	0.244937	0.701228
148	C	0.319588	0.127734	0.620096
149	C	0.355784	0.15422	0.619701
150	C	0.367349	0.190876	0.620043
151	C	0.340854	0.200575	0.619714
152	C	0.304197	0.17549	0.953381
153	C	0.294495	0.139295	0.619721
154	H	0.348709	0.226773	0.622394
155	H	0.268297	0.120957	0.622417
156	H	0.374126	0.146368	0.62242
157	C	0.309494	0.091546	0.626119
158	C	0.278103	0.18558	0.95943
159	C	0.403533	0.216973	0.626086
160	O	0.244692	0.159936	0.636528
161	O	0.335135	0.08378	0.636574
162	O	0.41129	0.250372	0.636574
163	C	0.21911	0.227201	0.68964
164	N	0.23718	0.213323	0.66952
165	C	0.26476	0.232397	0.974918
166	N	0.274128	0.266686	0.967501
167	C	0.25716	0.282108	0.986688
168	C	0.228681	0.263049	0.683186
169	H	0.198593	0.211128	0.710089
170	H	0.264926	0.307363	0.977296
171	N	0.208934	0.275836	0.702562
172	H	0.187342	0.258282	0.717071
173	N	0.284513	0.219512	0.956631
174	H	0.3055	0.236647	0.940621
175	C	0.267853	0.490924	0.689647
176	N	0.281733	0.022879	0.669547
177	C	0.262671	0.031386	0.974928
178	N	0.228388	0.006463	0.967485
179	C	0.212953	0.474075	0.986678
180	C	0.232013	0.464639	0.683153
181	H	0.283915	0.486481	0.710122
182	H	0.187726	0.456571	0.977206
183	N	0.219215	0.432101	0.702523
184	H	0.236762	0.428061	0.717045
185	N	0.275562	0.064025	0.956644
186	H	0.258431	0.067879	0.940624
187	C	0.004131	0.275939	0.689687
188	N	0.472189	0.25788	0.66955
189	C	0.463686	0.230305	0.974945
190	N	0.488605	0.220931	0.967534
191	C	0.020989	0.237888	0.986738
192	C	0.030405	0.266363	0.683242
193	H	0.008574	0.296455	0.710142
194	H	0.038476	0.230121	0.977352
195	N	0.062937	0.286106	0.702625
196	H	0.066978	0.307699	0.717135
197	N	0.431055	0.210561	0.956638
198	H	0.427206	0.189579	0.940618
199	C	0.174849	0.868461	0.043036
200	C	0.138567	0.842139	0.043341
201	C	0.126577	0.805389	0.043123
202	C	0.152903	0.795434	0.043373
203	C	0.189655	0.820194	0.376433
204	C	0.199617	0.856479	0.04337
205	H	0.144821	0.769213	0.040725
206	H	0.22583	0.874608	0.040595
207	H	0.120426	0.850218	0.040671
208	C	0.185074	0.904761	0.037291
209	C	0.215735	0.809975	0.370686
210	C	0.090273	0.779303	0.03741
211	O	0.250101	0.835963	0.034496
212	O	0.159084	0.913134	0.034387
213	O	0.081897	0.744937	0.03456
214	C	0.319589	0.627734	0.95343
215	C	0.355785	0.65422	0.953035
216	C	0.367351	0.690875	0.953377
217	C	0.340855	0.700576	0.953049
218	C	0.304197	0.67549	0.286713
219	C	0.294495	0.639293	0.953055
220	H	0.34871	0.726773	0.955728
221	H	0.268297	0.620955	0.955751
222	H	0.374126	0.646366	0.955754
223	C	0.309493	0.591545	0.959453
224	C	0.278103	0.68558	0.292762
225	C	0.403533	0.716972	0.95942
226	O	0.244693	0.659936	0.969862
227	O	0.335135	0.583781	0.969908
228	O	0.41129	0.750372	0.969908
229	C	0.21911	0.727199	0.022971
230	N	0.23718	0.713323	0.002851
231	C	0.26476	0.732396	0.308252
232	N	0.274128	0.766686	0.300834
233	C	0.257161	0.782108	0.320022
234	C	0.228682	0.76305	0.016518
235	H	0.198593	0.711126	0.043423
236	H	0.264925	0.80736	0.310629
237	N	0.208933	0.775833	0.035894
238	H	0.187343	0.758281	0.050403
239	N	0.284514	0.719512	0.289964
240	H	0.305501	0.736646	0.273954
241	C	0.267852	0.990921	0.022981
242	N	0.281734	0.522879	0.00288
243	C	0.262673	0.531387	0.308262
244	N	0.228388	0.506462	0.300816
245	C	0.212951	0.974073	0.320012
246	C	0.232013	0.964639	0.016486
247	H	0.283914	0.986478	0.043454
248	H	0.187726	0.956571	0.310539
249	N	0.219216	0.932102	0.035855
250	H	0.236762	0.928058	0.050376
251	N	0.275562	0.564025	0.289977
252	H	0.258431	0.567877	0.273958
253	C	0.004132	0.775939	0.023019
254	N	0.472189	0.757879	0.002883
255	C	0.463686	0.730303	0.308277
256	N	0.488605	0.72093	0.300868
257	C	0.020989	0.737887	0.320072
258	C	0.030405	0.766363	0.016573
259	H	0.008576	0.796455	0.043474
260	H	0.038478	0.730121	0.310685
261	N	0.062937	0.786106	0.035958
262	H	0.066976	0.807696	0.050468
263	N	0.431054	0.71056	0.28997
264	H	0.427206	0.689578	0.273949
265	C	0.174849	0.868461	0.37637
266	C	0.138567	0.842139	0.376675
267	C	0.126577	0.805389	0.376456
268	C	0.152903	0.795434	0.376705
269	C	0.189655	0.820194	0.709767
270	C	0.199617	0.856479	0.376702
271	H	0.144821	0.769213	0.374059
272	H	0.22583	0.874608	0.37393
273	H	0.120426	0.850218	0.374006
274	C	0.185074	0.904761	0.370626
275	C	0.215735	0.809975	0.70402
276	C	0.090273	0.779303	0.370742
277	O	0.250101	0.835963	0.367831
278	O	0.159084	0.913134	0.367721
279	O	0.081897	0.744937	0.367894
280	C	0.319589	0.627734	0.286762
281	C	0.355785	0.65422	0.286367
282	C	0.367351	0.690875	0.28671
283	C	0.340855	0.700576	0.286382
284	C	0.304197	0.67549	0.620046
285	C	0.294495	0.639293	0.286389
286	H	0.34871	0.726773	0.28906
287	H	0.268297	0.620955	0.289085
288	H	0.374126	0.646366	0.289087
289	C	0.309493	0.591545	0.292785
290	C	0.278103	0.68558	0.626096
291	C	0.403533	0.716972	0.292754
292	O	0.244693	0.659936	0.303195
293	O	0.335135	0.583781	0.30324
294	O	0.41129	0.750372	0.303241
295	C	0.21911	0.727199	0.356306
296	N	0.23718	0.713323	0.336186
297	C	0.26476	0.732396	0.641584
298	N	0.274128	0.766686	0.634167
299	C	0.257161	0.782108	0.653354
300	C	0.228682	0.76305	0.349852
301	H	0.198593	0.711126	0.376758
302	H	0.264925	0.80736	0.643962
303	N	0.208933	0.775833	0.369228
304	H	0.187343	0.758281	0.383737
305	N	0.284514	0.719512	0.623297
306	H	0.305501	0.736646	0.607287
307	C	0.267852	0.990921	0.356316
308	N	0.281734	0.522879	0.336213
309	C	0.262673	0.531387	0.641594
310	N	0.228388	0.506462	0.634151
311	C	0.212951	0.974073	0.653344
312	C	0.232013	0.964639	0.349819
313	H	0.283914	0.986478	0.376788
314	H	0.187726	0.956571	0.643872
315	N	0.219216	0.932102	0.369188
316	H	0.236762	0.928058	0.383711
317	N	0.275562	0.564025	0.62331
318	H	0.258431	0.567877	0.60729
319	C	0.004132	0.775939	0.356353
320	N	0.472189	0.757879	0.336216
321	C	0.463686	0.730303	0.641611
322	N	0.488605	0.72093	0.6342
323	C	0.020989	0.737887	0.653404
324	C	0.030405	0.766363	0.349908
325	H	0.008576	0.796455	0.376808
326	H	0.038478	0.730121	0.644018
327	N	0.062937	0.786106	0.369291
328	H	0.066976	0.807696	0.383801
329	N	0.431054	0.71056	0.623304
330	H	0.427206	0.689578	0.607284
331	C	0.174849	0.868461	0.709704
332	C	0.138567	0.842139	0.71001
333	C	0.126577	0.805389	0.70979
334	C	0.152903	0.795434	0.710039
335	C	0.189655	0.820194	0.0431
336	C	0.199617	0.856479	0.710036
337	H	0.144821	0.769213	0.707393
338	H	0.22583	0.874608	0.70726
339	H	0.120426	0.850218	0.70734
340	C	0.185074	0.904761	0.70396
341	C	0.215735	0.809975	0.037353
342	C	0.090273	0.779303	0.704076
343	O	0.250101	0.835963	0.701165
344	O	0.159084	0.913134	0.701055
345	O	0.081897	0.744937	0.701228
346	C	0.319589	0.627734	0.620096
347	C	0.355785	0.65422	0.619701
348	C	0.367351	0.690875	0.620043
349	C	0.340855	0.700576	0.619714
350	C	0.304197	0.67549	0.953381
351	C	0.294495	0.639293	0.619721
352	H	0.34871	0.726773	0.622394
353	H	0.268297	0.620955	0.622417
354	H	0.374126	0.646366	0.62242
355	C	0.309493	0.591545	0.626119
356	C	0.278103	0.68558	0.95943
357	C	0.403533	0.716972	0.626086
358	O	0.244693	0.659936	0.636528
359	O	0.335135	0.583781	0.636574
360	O	0.41129	0.750372	0.636574
361	C	0.21911	0.727199	0.68964
362	N	0.23718	0.713323	0.66952
363	C	0.26476	0.732396	0.974918
364	N	0.274128	0.766686	0.967501
365	C	0.257161	0.782108	0.986688
366	C	0.228682	0.76305	0.683186
367	H	0.198593	0.711126	0.710089
368	H	0.264925	0.80736	0.977296
369	N	0.208933	0.775833	0.702562
370	H	0.187343	0.758281	0.717071
371	N	0.284514	0.719512	0.956631
372	H	0.305501	0.736646	0.940621
373	C	0.267852	0.990921	0.689647
374	N	0.281734	0.522879	0.669547
375	C	0.262673	0.531387	0.974928
376	N	0.228388	0.506462	0.967485
377	C	0.212951	0.974073	0.986678
378	C	0.232013	0.964639	0.683153
379	H	0.283914	0.986478	0.710122
380	H	0.187726	0.956571	0.977206
381	N	0.219216	0.932102	0.702523
382	H	0.236762	0.928058	0.717045
383	N	0.275562	0.564025	0.956644
384	H	0.258431	0.567877	0.940624
385	C	0.004132	0.775939	0.689687
386	N	0.472189	0.757879	0.66955
387	C	0.463686	0.730303	0.974945
388	N	0.488605	0.72093	0.967534
389	C	0.020989	0.737887	0.986738
390	C	0.030405	0.766363	0.683239
391	H	0.008576	0.796455	0.710142
392	H	0.038478	0.730121	0.977352
393	N	0.062937	0.786106	0.702625
394	H	0.066976	0.807696	0.717135
395	N	0.431054	0.71056	0.956638
396	H	0.427206	0.689578	0.940618
397	C	0.674848	0.368461	0.043036
398	C	0.638566	0.342139	0.043341
399	C	0.626575	0.305389	0.043123
400	C	0.652902	0.295434	0.043373
401	C	0.689654	0.320194	0.376433
402	C	0.699617	0.356481	0.04337
403	H	0.644819	0.269213	0.040725
404	H	0.725828	0.374608	0.040595
405	H	0.620428	0.35022	0.040671
406	C	0.685075	0.404761	0.037291
407	C	0.715734	0.309975	0.370686
408	C	0.590275	0.279305	0.03741
409	O	0.7501	0.335963	0.034496
410	O	0.659083	0.413134	0.034387
411	O	0.581898	0.244937	0.03456
412	C	0.819589	0.127734	0.95343
413	C	0.855785	0.15422	0.953035
414	C	0.86735	0.190876	0.953377
415	C	0.840855	0.200575	0.953049
416	C	0.804197	0.17549	0.286713
417	C	0.794496	0.139295	0.953055
418	H	0.848708	0.226773	0.955728
419	H	0.768297	0.120957	0.955751
420	H	0.874127	0.146368	0.955754
421	C	0.809493	0.091546	0.959453
422	C	0.778103	0.18558	0.292762
423	C	0.903534	0.216973	0.95942
424	O	0.744692	0.159936	0.969862
425	O	0.835134	0.08378	0.969908
426	O	0.911288	0.250372	0.969908
427	C	0.71911	0.227201	0.022971
428	N	0.73718	0.213323	0.002851
429	C	0.764759	0.232397	0.308252
430	N	0.774128	0.266686	0.300834
431	C	0.75716	0.282108	0.320022
432	C	0.728681	0.263049	0.016518
433	H	0.698593	0.211128	0.043423
434	H	0.764925	0.307363	0.310629
435	N	0.708934	0.275836	0.035894
436	H	0.687341	0.258282	0.050403
437	N	0.784513	0.219512	0.289964
438	H	0.805501	0.236647	0.273954
439	C	0.767853	0.490924	0.022981
440	N	0.781734	0.022879	0.00288
441	C	0.762672	0.031386	0.308262
442	N	0.728389	0.006463	0.300816
443	C	0.712954	0.474075	0.320012
444	C	0.732012	0.464639	0.016486
445	H	0.783915	0.486481	0.043454
446	H	0.687727	0.456571	0.310539
447	N	0.719215	0.432101	0.035855
448	H	0.736763	0.428061	0.050376
449	N	0.775561	0.064025	0.289977
450	H	0.758431	0.067879	0.273958
451	C	0.504131	0.275939	0.023019
452	N	0.97219	0.25788	0.002883
453	C	0.963687	0.230305	0.308277
454	N	0.988604	0.220931	0.300868
455	C	0.520988	0.237888	0.320072
456	C	0.530406	0.266363	0.016573
457	H	0.508575	0.296455	0.043474
458	H	0.538476	0.230121	0.310685
459	N	0.562935	0.286106	0.035958
460	H	0.566978	0.307699	0.050468
461	N	0.931054	0.210561	0.28997
462	H	0.927204	0.189579	0.273949
463	C	0.674848	0.368461	0.37637
464	C	0.638566	0.342139	0.376675
465	C	0.626575	0.305389	0.376456
466	C	0.652902	0.295434	0.376705
467	C	0.689654	0.320194	0.709767
468	C	0.699617	0.356481	0.376702
469	H	0.644819	0.269213	0.374059
470	H	0.725828	0.374608	0.37393
471	H	0.620428	0.35022	0.374006
472	C	0.685075	0.404761	0.370626
473	C	0.715734	0.309975	0.70402
474	C	0.590275	0.279305	0.370742
475	O	0.7501	0.335963	0.367831
476	O	0.659083	0.413134	0.367721
477	O	0.581898	0.244937	0.367894
478	C	0.819589	0.127734	0.286762
479	C	0.855785	0.15422	0.286367
480	C	0.86735	0.190876	0.28671
481	C	0.840855	0.200575	0.286382
482	C	0.804197	0.17549	0.620046
483	C	0.794496	0.139295	0.286389
484	H	0.848708	0.226773	0.28906
485	H	0.768297	0.120957	0.289085
486	H	0.874127	0.146368	0.289087
487	C	0.809493	0.091546	0.292785
488	C	0.778103	0.18558	0.626096
489	C	0.903534	0.216973	0.292754
490	O	0.744692	0.159936	0.303195
491	O	0.835134	0.08378	0.30324
492	O	0.911288	0.250372	0.303241
493	C	0.71911	0.227201	0.356306
494	N	0.73718	0.213323	0.336186
495	C	0.764759	0.232397	0.641584
496	N	0.774128	0.266686	0.634167
497	C	0.75716	0.282108	0.653354
498	C	0.728681	0.263049	0.349852
499	H	0.698593	0.211128	0.376755
500	H	0.764925	0.307363	0.643962
501	N	0.708934	0.275836	0.369228
502	H	0.687341	0.258282	0.383737
503	N	0.784513	0.219512	0.623297
504	H	0.805501	0.236647	0.607287
505	C	0.767853	0.490924	0.356316
506	N	0.781734	0.022879	0.336213
507	C	0.762672	0.031386	0.641594
508	N	0.728389	0.006463	0.634151
509	C	0.712954	0.474075	0.653344
510	C	0.732012	0.464639	0.349819
511	H	0.783915	0.486481	0.376788
512	H	0.687727	0.456571	0.643872
513	N	0.719215	0.432101	0.369188
514	H	0.736763	0.428061	0.383711
515	N	0.775561	0.064025	0.62331
516	H	0.758431	0.067879	0.60729
517	C	0.504131	0.275939	0.356353
518	N	0.97219	0.25788	0.336216
519	C	0.963687	0.230305	0.641611
520	N	0.988604	0.220931	0.6342
521	C	0.520988	0.237888	0.653404
522	C	0.530406	0.266363	0.349908
523	H	0.508575	0.296455	0.376808
524	H	0.538476	0.230121	0.644018
525	N	0.562935	0.286106	0.369291
526	H	0.566978	0.307699	0.383801
527	N	0.931054	0.210561	0.623304
528	H	0.927204	0.189579	0.607284
529	C	0.674848	0.368461	0.709704
530	C	0.638566	0.342139	0.71001
531	C	0.626575	0.305389	0.70979
532	C	0.652902	0.295434	0.710039
533	C	0.689654	0.320194	0.0431
534	C	0.699617	0.356481	0.710036
535	H	0.644819	0.269213	0.707393
536	H	0.725828	0.374608	0.70726
537	H	0.620428	0.35022	0.70734
538	C	0.685075	0.404761	0.70396
539	C	0.715734	0.309975	0.037353
540	C	0.590275	0.279305	0.704076
541	O	0.7501	0.335963	0.701165
542	O	0.659083	0.413134	0.701055
543	O	0.581898	0.244937	0.701228
544	C	0.819589	0.127734	0.620096
545	C	0.855785	0.15422	0.619701
546	C	0.86735	0.190876	0.620043
547	C	0.840855	0.200575	0.619714
548	C	0.804197	0.17549	0.953381
549	C	0.794496	0.139295	0.619721
550	H	0.848708	0.226773	0.622394
551	H	0.768297	0.120957	0.622417
552	H	0.874127	0.146368	0.62242
553	C	0.809493	0.091546	0.626119
554	C	0.778103	0.18558	0.95943
555	C	0.903534	0.216973	0.626086
556	O	0.744692	0.159936	0.636528
557	O	0.835134	0.08378	0.636574
558	O	0.911288	0.250372	0.636574
559	C	0.71911	0.227201	0.68964
560	N	0.73718	0.213323	0.66952
561	C	0.764759	0.232397	0.974918
562	N	0.774128	0.266686	0.967501
563	C	0.75716	0.282108	0.986688
564	C	0.728681	0.263049	0.683186
565	H	0.698593	0.211128	0.710089
566	H	0.764925	0.307363	0.977296
567	N	0.708934	0.275836	0.702562
568	H	0.687341	0.258282	0.717071
569	N	0.784513	0.219512	0.956631
570	H	0.805501	0.236647	0.940621
571	C	0.767853	0.490924	0.689647
572	N	0.781734	0.022879	0.669547
573	C	0.762672	0.031386	0.974928
574	N	0.728389	0.006463	0.967485
575	C	0.712954	0.474075	0.986678
576	C	0.732012	0.464639	0.683153
577	H	0.783915	0.486481	0.710122
578	H	0.687727	0.456571	0.977206
579	N	0.719215	0.432101	0.702523
580	H	0.736763	0.428061	0.717045
581	N	0.775561	0.064025	0.956644
582	H	0.758431	0.067879	0.940624
583	C	0.504131	0.275939	0.689687
584	N	0.97219	0.25788	0.66955
585	C	0.963687	0.230305	0.974945
586	N	0.988604	0.220931	0.967534
587	C	0.520988	0.237888	0.986738
588	C	0.530406	0.266363	0.683242
589	H	0.508575	0.296455	0.710142
590	H	0.538476	0.230121	0.977352
591	N	0.562935	0.286106	0.702625
592	H	0.566978	0.307699	0.717135
593	N	0.931054	0.210561	0.956638
594	H	0.927204	0.189579	0.940618
595	C	0.674848	0.868461	0.043036
596	C	0.638566	0.842139	0.043341
597	C	0.626575	0.805389	0.043123
598	C	0.652902	0.795434	0.043373
599	C	0.689654	0.820194	0.376433
600	C	0.699618	0.856479	0.04337
601	H	0.64482	0.769213	0.040725
602	H	0.725831	0.874608	0.040595
603	H	0.620426	0.850218	0.040671
604	C	0.685075	0.904761	0.037291
605	C	0.715734	0.809975	0.370686
606	C	0.590274	0.779303	0.03741
607	O	0.7501	0.835963	0.034496
608	O	0.659084	0.913134	0.034387
609	O	0.581898	0.744937	0.03456
610	C	0.819589	0.627734	0.95343
611	C	0.855785	0.65422	0.953035
612	C	0.86735	0.690875	0.953377
613	C	0.840855	0.700576	0.953049
614	C	0.804197	0.67549	0.286713
615	C	0.794495	0.639293	0.953055
616	H	0.84871	0.726773	0.955728
617	H	0.768296	0.620955	0.955751
618	H	0.874126	0.646366	0.955754
619	C	0.809492	0.591545	0.959453
620	C	0.778103	0.68558	0.292762
621	C	0.903533	0.716972	0.95942
622	O	0.744692	0.659936	0.969862
623	O	0.835134	0.583781	0.969908
624	O	0.911291	0.750372	0.969908
625	C	0.719109	0.727199	0.022971
626	N	0.73718	0.713323	0.002851
627	C	0.764759	0.732396	0.308252
628	N	0.774128	0.766686	0.300834
629	C	0.75716	0.782108	0.320022
630	C	0.728682	0.76305	0.016518
631	H	0.698593	0.711126	0.043423
632	H	0.764926	0.80736	0.310629
633	N	0.708932	0.775833	0.035894
634	H	0.687344	0.758281	0.050403
635	N	0.784513	0.719512	0.289964
636	H	0.805501	0.736646	0.273954
637	C	0.767852	0.990921	0.022981
638	N	0.781734	0.522879	0.00288
639	C	0.762672	0.531387	0.308262
640	N	0.728389	0.506462	0.300816
641	C	0.712952	0.974073	0.320012
642	C	0.732014	0.964639	0.016486
643	H	0.783913	0.986478	0.043454
644	H	0.687726	0.956571	0.310539
645	N	0.719215	0.932102	0.035855
646	H	0.736762	0.928058	0.050376
647	N	0.775563	0.564025	0.289977
648	H	0.758432	0.567877	0.273958
649	C	0.504132	0.775939	0.023019
650	N	0.97219	0.757879	0.002883
651	C	0.963686	0.730303	0.308277
652	N	0.988604	0.72093	0.300868
653	C	0.520989	0.737887	0.320072
654	C	0.530406	0.766363	0.016573
655	H	0.508575	0.796455	0.043474
656	H	0.538476	0.730121	0.310685
657	N	0.562937	0.786106	0.035958
658	H	0.566977	0.807696	0.050468
659	N	0.931054	0.71056	0.28997
660	H	0.927206	0.689578	0.273949
661	C	0.674848	0.868461	0.37637
662	C	0.638566	0.842139	0.376675
663	C	0.626575	0.805389	0.376456
664	C	0.652902	0.795434	0.376705
665	C	0.689654	0.820194	0.709767
666	C	0.699618	0.856479	0.376702
667	H	0.64482	0.769213	0.374059
668	H	0.725831	0.874608	0.37393
669	H	0.620426	0.850218	0.374006
670	C	0.685075	0.904761	0.370626
671	C	0.715734	0.809975	0.70402
672	C	0.590274	0.779303	0.370742
673	O	0.7501	0.835963	0.367831
674	O	0.659084	0.913134	0.367721
675	O	0.581898	0.744937	0.367894
676	C	0.819589	0.627734	0.286762
677	C	0.855785	0.65422	0.286367
678	C	0.86735	0.690875	0.28671
679	C	0.840855	0.700576	0.286382
680	C	0.804197	0.67549	0.620046
681	C	0.794495	0.639293	0.286389
682	H	0.84871	0.726773	0.28906
683	H	0.768296	0.620955	0.289085
684	H	0.874126	0.646366	0.289087
685	C	0.809492	0.591545	0.292785
686	C	0.778103	0.68558	0.626096
687	C	0.903533	0.716972	0.292754
688	O	0.744692	0.659936	0.303195
689	O	0.835134	0.583781	0.30324
690	O	0.911291	0.750372	0.303241
691	C	0.719109	0.727199	0.356306
692	N	0.73718	0.713323	0.336186
693	C	0.764759	0.732396	0.641584
694	N	0.774128	0.766686	0.634167
695	C	0.75716	0.782108	0.653354
696	C	0.728682	0.76305	0.349852
697	H	0.698593	0.711126	0.376758
698	H	0.764926	0.80736	0.643962
699	N	0.708932	0.775833	0.369228
700	H	0.687344	0.758281	0.383737
701	N	0.784513	0.719512	0.623297
702	H	0.805501	0.736646	0.607287
703	C	0.767852	0.990921	0.356316
704	N	0.781734	0.522879	0.336213
705	C	0.762672	0.531387	0.641594
706	N	0.728389	0.506462	0.634151
707	C	0.712952	0.974073	0.653344
708	C	0.732014	0.964639	0.349819
709	H	0.783913	0.986478	0.376788
710	H	0.687726	0.956571	0.643872
711	N	0.719215	0.932102	0.369188
712	H	0.736762	0.928058	0.383711
713	N	0.775563	0.564025	0.62331
714	H	0.758432	0.567877	0.60729
715	C	0.504132	0.775939	0.356353
716	N	0.97219	0.757879	0.336216
717	C	0.963686	0.730303	0.641611
718	N	0.988604	0.72093	0.6342
719	C	0.520989	0.737887	0.653404
720	C	0.530406	0.766363	0.349908
721	H	0.508575	0.796455	0.376808
722	H	0.538476	0.730121	0.644018
723	N	0.562937	0.786106	0.369291
724	H	0.566977	0.807696	0.383801
725	N	0.931054	0.71056	0.623304
726	H	0.927206	0.689578	0.607284
727	C	0.674848	0.868461	0.709704
728	C	0.638566	0.842139	0.71001
729	C	0.626575	0.805389	0.70979
730	C	0.652902	0.795434	0.710039
731	C	0.689654	0.820194	0.0431
732	C	0.699618	0.856479	0.710036
733	H	0.64482	0.769213	0.707393
734	H	0.725831	0.874608	0.70726
735	H	0.620426	0.850218	0.70734
736	C	0.685075	0.904761	0.70396
737	C	0.715734	0.809975	0.037353
738	C	0.590274	0.779303	0.704076
739	O	0.7501	0.835963	0.701165
740	O	0.659084	0.913134	0.701055
741	O	0.581898	0.744937	0.701228
742	C	0.819589	0.627734	0.620096
743	C	0.855785	0.65422	0.619701
744	C	0.86735	0.690875	0.620043
745	C	0.840855	0.700576	0.619714
746	C	0.804197	0.67549	0.953381
747	C	0.794495	0.639293	0.619721
748	H	0.84871	0.726773	0.622394
749	H	0.768296	0.620955	0.622417
750	H	0.874126	0.646366	0.62242
751	C	0.809492	0.591545	0.626119
752	C	0.778103	0.68558	0.95943
753	C	0.903533	0.716972	0.626086
754	O	0.744692	0.659936	0.636528
755	O	0.835134	0.583781	0.636574
756	O	0.911291	0.750372	0.636574
757	C	0.719109	0.727199	0.68964
758	N	0.73718	0.713323	0.66952
759	C	0.764759	0.732396	0.974918
760	N	0.774128	0.766686	0.967501
761	C	0.75716	0.782108	0.986688
762	C	0.728682	0.76305	0.683186
763	H	0.698593	0.711126	0.710089
764	H	0.764926	0.80736	0.977296
765	N	0.708932	0.775833	0.702562
766	H	0.687344	0.758281	0.717071
767	N	0.784513	0.719512	0.956631
768	H	0.805501	0.736646	0.940621
769	C	0.767852	0.990921	0.689647
770	N	0.781734	0.522879	0.669547
771	C	0.762672	0.531387	0.974928
772	N	0.728389	0.506462	0.967485
773	C	0.712952	0.974073	0.986678
774	C	0.732014	0.964639	0.683153
775	H	0.783913	0.986478	0.710122
776	H	0.687726	0.956571	0.977206
777	N	0.719215	0.932102	0.702523
778	H	0.736762	0.928058	0.717045
779	N	0.775563	0.564025	0.956644
780	H	0.758432	0.567877	0.940624
781	C	0.504132	0.775939	0.689687
782	N	0.97219	0.757879	0.66955
783	C	0.963686	0.730303	0.974945
784	N	0.988604	0.72093	0.967534
785	C	0.520989	0.737887	0.986738
786	C	0.530406	0.766363	0.683239
787	H	0.508575	0.796455	0.710142
788	H	0.538476	0.730121	0.977352
789	N	0.562937	0.786106	0.702625
790	H	0.566977	0.807696	0.717135
791	N	0.931054	0.71056	0.956638
792	H	0.927206	0.689578	0.940618
