data_C171H90N36O18_2018-02-15_10:42:26
#******************************************
#
# CIF file created by Zeo++
# Zeo++ is an open source package to
# analyze microporous materials
#
#*******************************************

_cell_length_a		29.3213   
_cell_length_b		29.3214   
_cell_length_c		29.8688   
_cell_angle_alpha		90   
_cell_angle_beta		90   
_cell_angle_gamma		120   

_symmetry_space_group_name_H-M		'P1'
_symmetry_Int_Tables_number		1
_symmetry_cell_setting		Monoclinic

loop_
_symmetry_equiv_pos_as_xyz
'+x,+y,+z'

loop_
_atom_site_label
_atom_site_type_symbol
_atom_site_fract_x
_atom_site_fract_y
_atom_site_fract_z
1	N	0.032159	0.516626	0.30003
2	C	0.028107	0.514606	0.046959
3	O	0.014965	0.508033	0.122074
4	N	0.032159	0.516626	0.633363
5	C	0.028107	0.514606	0.380293
6	O	0.014965	0.508033	0.455408
7	N	0.032159	0.516626	0.966697
8	C	0.028107	0.514606	0.713627
9	O	0.014965	0.508033	0.788742
10	C	0.046744	0.523927	0.091258
11	C	0.046744	0.523927	0.42459
12	C	0.046744	0.523927	0.757924
13	C	0.058107	0.529602	0.006563
14	C	0.058107	0.529602	0.339896
15	C	0.058107	0.529602	0.673231
16	C	0.363831	0.723269	0.998754
17	N	0.389337	0.695218	0.998828
18	C	0.363833	0.64166	0.998758
19	N	0.310273	0.616153	0.998828
20	C	0.282218	0.641656	0.998751
21	N	0.310272	0.695214	0.998824
22	C	0.391958	0.61353	0.999507
23	C	0.447814	0.640396	0.000174
24	C	0.475603	0.612794	0.001982
25	C	0.448206	0.557283	0.0034
26	C	0.392697	0.529889	0.001978
27	C	0.365095	0.557676	0.000167
28	C	0.391958	0.779525	0.999497
29	C	0.447814	0.808517	0.000154
30	C	0.475602	0.863906	0.001955
31	C	0.448206	0.89202	0.003393
32	C	0.392695	0.863906	0.001982
33	C	0.365094	0.808517	0.00017
34	C	0.225966	0.61353	0.999501
35	C	0.196974	0.640396	0.000164
36	C	0.141583	0.612794	0.001962
37	C	0.11347	0.557283	0.00339
38	C	0.141583	0.529885	0.001965
39	C	0.196974	0.557676	0.000157
40	H	0.515909	0.883474	0.002964
41	H	0.469196	0.789638	0.999749
42	H	0.371957	0.883474	0.002982
43	H	0.324832	0.789638	0.999762
44	H	0.215851	0.680655	0.999749
45	H	0.122014	0.633532	0.002967
46	H	0.215851	0.536293	0.999759
47	H	0.122013	0.489579	0.002976
48	H	0.324834	0.536293	0.999759
49	H	0.371958	0.489579	0.002973
50	H	0.515911	0.633532	0.002972
51	H	0.469197	0.680655	0.999755
52	C	0.642757	0.281125	0.002242
53	N	0.617251	0.309174	0.002231
54	C	0.642758	0.362731	0.002241
55	N	0.696314	0.388238	0.002231
56	C	0.724364	0.362731	0.002242
57	N	0.696317	0.309174	0.002231
58	C	0.61463	0.390859	0.002122
59	C	0.55877	0.364004	0.002062
60	C	0.53097	0.391638	0.001905
61	C	0.558332	0.447154	0.001654
62	C	0.61385	0.47452	0.001908
63	C	0.641487	0.446721	0.002065
64	C	0.61463	0.22487	0.002122
65	C	0.558771	0.195863	0.002069
66	C	0.530972	0.140429	0.001911
67	C	0.558336	0.112275	0.001664
68	C	0.613851	0.14043	0.001908
69	C	0.641486	0.195864	0.002062
70	C	0.780623	0.390859	0.002122
71	C	0.809629	0.364004	0.002065
72	C	0.865061	0.391639	0.001911
73	C	0.893214	0.447154	0.001664
74	C	0.86506	0.47452	0.001911
75	C	0.809628	0.446721	0.002065
76	H	0.490645	0.120829	0.001998
77	H	0.537386	0.214741	0.002197
78	H	0.634579	0.120831	0.001992
79	H	0.681749	0.214743	0.002193
80	H	0.790748	0.32374	0.002196
81	H	0.884662	0.370912	0.001995
82	H	0.790747	0.468105	0.002197
83	H	0.884661	0.514846	0.001998
84	H	0.681748	0.468105	0.002196
85	H	0.634576	0.514846	0.001992
86	H	0.490644	0.370911	0.001992
87	H	0.537386	0.32374	0.002196
88	C	0.475888	0.529602	0.006568
89	N	0.488859	0.51663	0.300033
90	C	0.515432	0.490056	0.296174
91	C	0.530623	0.474866	0.002152
92	N	0.517619	0.487874	0.041794
93	C	0.490892	0.514602	0.046962
94	H	0.523947	0.481537	0.265167
95	C	0.481578	0.523919	0.091263
96	O	0.497478	0.508037	0.122076
97	O	0.458606	0.546882	0.104782
98	H	0.444191	0.561256	0.088628
99	C	0.475889	0.947382	0.006565
100	N	0.488874	0.97333	0.300032
101	C	0.515448	0.026479	0.296177
102	C	0.530625	0.056854	0.002159
103	N	0.517608	0.03084	0.041797
104	C	0.49088	0.977382	0.046961
105	H	0.523972	0.043514	0.26517
106	C	0.481545	0.958747	0.09126
107	O	0.497398	0.990523	0.122077
108	O	0.45862	0.912809	0.104777
109	H	0.444313	0.884022	0.08862
110	C	0.979012	0.490052	0.296175
111	C	0.948637	0.474866	0.002156
112	N	0.974651	0.487878	0.041795
113	H	0.961977	0.481534	0.265169
114	O	0.092681	0.546886	0.104774
115	H	0.121469	0.561284	0.088617
116	C	0.363831	0.723269	0.332087
117	N	0.389337	0.695218	0.332161
118	C	0.363833	0.64166	0.332092
119	N	0.310273	0.616153	0.332161
120	C	0.282218	0.641656	0.332084
121	N	0.310272	0.695214	0.332158
122	C	0.391958	0.61353	0.332839
123	C	0.447814	0.640396	0.333506
124	C	0.475603	0.612794	0.335313
125	C	0.448206	0.557283	0.336733
126	C	0.392697	0.529889	0.335313
127	C	0.365095	0.557676	0.3335
128	C	0.391958	0.779525	0.332831
129	C	0.447814	0.808517	0.333486
130	C	0.475602	0.863906	0.335286
131	C	0.448206	0.89202	0.336726
132	C	0.392695	0.863906	0.335313
133	C	0.365094	0.808517	0.333504
134	C	0.225966	0.61353	0.332833
135	C	0.196974	0.640396	0.333498
136	C	0.141583	0.612794	0.335293
137	C	0.11347	0.557283	0.336722
138	C	0.141583	0.529885	0.335296
139	C	0.196974	0.557676	0.333491
140	H	0.515909	0.883474	0.336297
141	H	0.469196	0.789638	0.333082
142	H	0.371957	0.883474	0.336314
143	H	0.324832	0.789638	0.333094
144	H	0.215851	0.680655	0.333082
145	H	0.122014	0.633532	0.336301
146	H	0.215851	0.536293	0.333091
147	H	0.122013	0.489579	0.336311
148	H	0.324834	0.536293	0.333092
149	H	0.371958	0.489579	0.336307
150	H	0.515911	0.633532	0.336304
151	H	0.469197	0.680655	0.33309
152	C	0.642757	0.281125	0.335574
153	N	0.617251	0.309174	0.335564
154	C	0.642758	0.362731	0.335574
155	N	0.696314	0.388238	0.335564
156	C	0.724364	0.362731	0.335574
157	N	0.696317	0.309174	0.335564
158	C	0.61463	0.390859	0.335454
159	C	0.55877	0.364004	0.335397
160	C	0.53097	0.391638	0.335239
161	C	0.558332	0.447154	0.334988
162	C	0.61385	0.47452	0.335239
163	C	0.641487	0.446721	0.335397
164	C	0.61463	0.22487	0.335454
165	C	0.558771	0.195863	0.3354
166	C	0.530972	0.140429	0.335246
167	C	0.558336	0.112275	0.334998
168	C	0.613851	0.14043	0.335243
169	C	0.641486	0.195864	0.335397
170	C	0.780623	0.390859	0.335457
171	C	0.809629	0.364004	0.3354
172	C	0.865061	0.391639	0.335243
173	C	0.893214	0.447154	0.334995
174	C	0.86506	0.47452	0.335243
175	C	0.809628	0.446721	0.3354
176	H	0.490645	0.120829	0.335333
177	H	0.537386	0.214741	0.335531
178	H	0.634579	0.120831	0.335326
179	H	0.681749	0.214743	0.335524
180	H	0.790748	0.32374	0.335527
181	H	0.884662	0.370912	0.33533
182	H	0.790747	0.468105	0.335531
183	H	0.884661	0.514846	0.33533
184	H	0.681748	0.468105	0.335527
185	H	0.634576	0.514846	0.335326
186	H	0.490644	0.370911	0.335326
187	H	0.537386	0.32374	0.335527
188	C	0.475888	0.529602	0.339903
189	N	0.488859	0.51663	0.633366
190	C	0.515432	0.490056	0.629506
191	C	0.530623	0.474866	0.335487
192	N	0.517619	0.487874	0.375127
193	C	0.490892	0.514602	0.380296
194	H	0.523947	0.481537	0.598501
195	C	0.481578	0.523919	0.424597
196	O	0.497478	0.508037	0.455408
197	O	0.458606	0.546882	0.438116
198	H	0.444191	0.561256	0.421962
199	C	0.475889	0.947382	0.3399
200	N	0.488874	0.97333	0.633366
201	C	0.515448	0.026479	0.629509
202	C	0.530625	0.056854	0.33549
203	N	0.517608	0.03084	0.37513
204	C	0.49088	0.977382	0.380293
205	H	0.523972	0.043514	0.598504
206	C	0.481545	0.958747	0.424593
207	O	0.497398	0.990523	0.455408
208	O	0.45862	0.912809	0.438109
209	H	0.444313	0.884022	0.421952
210	C	0.979012	0.490052	0.629509
211	C	0.948637	0.474866	0.33549
212	N	0.974651	0.487878	0.375127
213	H	0.961977	0.481534	0.598501
214	O	0.092681	0.546886	0.438106
215	H	0.121469	0.561284	0.421949
216	C	0.363831	0.723269	0.66542
217	N	0.389337	0.695218	0.665494
218	C	0.363833	0.64166	0.665427
219	N	0.310273	0.616153	0.665494
220	C	0.282218	0.641656	0.665417
221	N	0.310272	0.695214	0.66549
222	C	0.391958	0.61353	0.666173
223	C	0.447814	0.640396	0.666839
224	C	0.475603	0.612794	0.668647
225	C	0.448206	0.557283	0.670067
226	C	0.392697	0.529889	0.668644
227	C	0.365095	0.557676	0.666833
228	C	0.391958	0.779525	0.666163
229	C	0.447814	0.808517	0.666819
230	C	0.475602	0.863906	0.668621
231	C	0.448206	0.89202	0.67006
232	C	0.392695	0.863906	0.668647
233	C	0.365094	0.808517	0.666836
234	C	0.225966	0.61353	0.666166
235	C	0.196974	0.640396	0.666833
236	C	0.141583	0.612794	0.668627
237	C	0.11347	0.557283	0.670057
238	C	0.141583	0.529885	0.668631
239	C	0.196974	0.557676	0.666826
240	H	0.515909	0.883474	0.669632
241	H	0.469196	0.789638	0.666414
242	H	0.371957	0.883474	0.669648
243	H	0.324832	0.789638	0.666428
244	H	0.215851	0.680655	0.666414
245	H	0.122014	0.633532	0.669635
246	H	0.215851	0.536293	0.666424
247	H	0.122013	0.489579	0.669642
248	H	0.324834	0.536293	0.666424
249	H	0.371958	0.489579	0.669638
250	H	0.515911	0.633532	0.669638
251	H	0.469197	0.680655	0.666424
252	C	0.642757	0.281125	0.668908
253	N	0.617251	0.309174	0.668898
254	C	0.642758	0.362731	0.668908
255	N	0.696314	0.388238	0.668898
256	C	0.724364	0.362731	0.668908
257	N	0.696317	0.309174	0.668898
258	C	0.61463	0.390859	0.668788
259	C	0.55877	0.364004	0.668728
260	C	0.53097	0.391638	0.668574
261	C	0.558332	0.447154	0.668323
262	C	0.61385	0.47452	0.668574
263	C	0.641487	0.446721	0.668731
264	C	0.61463	0.22487	0.668788
265	C	0.558771	0.195863	0.668734
266	C	0.530972	0.140429	0.66858
267	C	0.558336	0.112275	0.668329
268	C	0.613851	0.14043	0.668574
269	C	0.641486	0.195864	0.668728
270	C	0.780623	0.390859	0.668791
271	C	0.809629	0.364004	0.668734
272	C	0.865061	0.391639	0.668577
273	C	0.893214	0.447154	0.668329
274	C	0.86506	0.47452	0.668577
275	C	0.809628	0.446721	0.668734
276	H	0.490645	0.120829	0.668667
277	H	0.537386	0.214741	0.668865
278	H	0.634579	0.120831	0.668661
279	H	0.681749	0.214743	0.668858
280	H	0.790748	0.32374	0.668862
281	H	0.884662	0.370912	0.668661
282	H	0.790747	0.468105	0.668865
283	H	0.884661	0.514846	0.668664
284	H	0.681748	0.468105	0.668862
285	H	0.634576	0.514846	0.668661
286	H	0.490644	0.370911	0.668657
287	H	0.537386	0.32374	0.668862
288	C	0.475888	0.529602	0.673234
289	N	0.488859	0.51663	0.966701
290	C	0.515432	0.490056	0.96284
291	C	0.530623	0.474866	0.668818
292	N	0.517619	0.487874	0.708461
293	C	0.490892	0.514602	0.713627
294	H	0.523947	0.481537	0.931835
295	C	0.481578	0.523919	0.757931
296	O	0.497478	0.508037	0.788742
297	O	0.458606	0.546882	0.77145
298	H	0.444191	0.561256	0.755296
299	C	0.475889	0.947382	0.673231
300	N	0.488874	0.97333	0.966701
301	C	0.515448	0.026479	0.962844
302	C	0.530625	0.056854	0.668825
303	N	0.517608	0.03084	0.708465
304	C	0.49088	0.977382	0.713627
305	H	0.523972	0.043514	0.931838
306	C	0.481545	0.958747	0.757928
307	O	0.497398	0.990523	0.788742
308	O	0.45862	0.912809	0.771443
309	H	0.444313	0.884022	0.755286
310	C	0.979012	0.490052	0.96284
311	C	0.948637	0.474866	0.668821
312	N	0.974651	0.487878	0.708461
313	H	0.961977	0.481534	0.931835
314	O	0.092681	0.546886	0.77144
315	H	0.121469	0.561284	0.755283
