data_C198H108N42_2018-02-15_10:40:50
#******************************************
#
# CIF file created by Zeo++
# Zeo++ is an open source package to
# analyze microporous materials
#
#*******************************************

_cell_length_a		32.2075   
_cell_length_b		32.2076   
_cell_length_c		29.2198   
_cell_angle_alpha		90   
_cell_angle_beta		90   
_cell_angle_gamma		120   

_symmetry_space_group_name_H-M		'P1'
_symmetry_Int_Tables_number		1
_symmetry_cell_setting		Monoclinic

loop_
_symmetry_equiv_pos_as_xyz
'+x,+y,+z'

loop_
_atom_site_label
_atom_site_type_symbol
_atom_site_fract_x
_atom_site_fract_y
_atom_site_fract_z
1	N	0.352346	0.679213	0.013061
2	C	0.377533	0.653461	0.012582
3	C	0.378008	0.730302	0.01239
4	C	0.301383	0.653507	0.01471
5	C	0.274387	0.624883	0.977431
6	C	0.223963	0.600228	0.978413
7	C	0.198498	0.603849	0.01635
8	C	0.22604	0.632903	0.053558
9	C	0.276569	0.657171	0.052855
10	C	0.393555	0.643404	0.053715
11	C	0.387476	0.637722	0.971216
12	C	0.393861	0.806362	0.978064
13	C	0.369583	0.755832	0.977897
14	H	0.386731	0.654289	0.084272
15	H	0.376286	0.644541	0.940843
16	H	0.291285	0.621904	0.949101
17	H	0.206043	0.579093	0.950987
18	H	0.384641	0.822717	0.953379
19	H	0.344671	0.737605	0.953016
20	H	0.295303	0.678173	0.08007
21	H	0.209579	0.637646	0.081366
22	C	0.045319	0.529557	0.348651
23	C	0.146974	0.579147	0.016749
24	C	0.120249	0.558274	0.057233
25	N	0.071461	0.550035	0.310326
26	C	0.069735	0.533561	0.056854
27	N	0.043507	0.513004	0.095178
28	H	0.137376	0.559812	0.087202
29	C	0.120149	0.574045	0.30983
30	H	0.136807	0.58897	0.279567
31	N	0.352346	0.679213	0.346396
32	C	0.377533	0.653461	0.345917
33	C	0.378008	0.730302	0.345725
34	C	0.301383	0.653507	0.348042
35	C	0.274387	0.624883	0.310765
36	C	0.223963	0.600228	0.311748
37	C	0.198498	0.603849	0.349681
38	C	0.22604	0.632903	0.386889
39	C	0.276569	0.657171	0.386187
40	C	0.393555	0.643404	0.387046
41	C	0.387476	0.637722	0.30455
42	C	0.393861	0.806362	0.3114
43	C	0.369583	0.755832	0.311231
44	H	0.386731	0.654289	0.417604
45	H	0.376286	0.644541	0.274176
46	H	0.291285	0.621904	0.282437
47	H	0.206043	0.579093	0.28432
48	H	0.384641	0.822717	0.286713
49	H	0.344671	0.737605	0.28635
50	H	0.295303	0.678173	0.413402
51	H	0.209579	0.637646	0.414699
52	C	0.045319	0.529557	0.681984
53	C	0.146974	0.579147	0.350082
54	C	0.120249	0.558274	0.390565
55	N	0.071461	0.550035	0.64366
56	C	0.069735	0.533561	0.390188
57	N	0.043507	0.513004	0.428511
58	H	0.137376	0.559812	0.420534
59	C	0.120149	0.574045	0.643161
60	H	0.136807	0.58897	0.6129
61	N	0.352346	0.679213	0.679729
62	C	0.377533	0.653461	0.679249
63	C	0.378008	0.730302	0.679058
64	C	0.301383	0.653507	0.681375
65	C	0.274387	0.624883	0.644099
66	C	0.223963	0.600228	0.645081
67	C	0.198498	0.603849	0.683014
68	C	0.22604	0.632903	0.720222
69	C	0.276569	0.657171	0.71952
70	C	0.393555	0.643404	0.720379
71	C	0.387476	0.637722	0.637884
72	C	0.393861	0.806362	0.644732
73	C	0.369583	0.755832	0.644564
74	H	0.386731	0.654289	0.750937
75	H	0.376286	0.644541	0.60751
76	H	0.291285	0.621904	0.615768
77	H	0.206043	0.579093	0.617654
78	H	0.384641	0.822717	0.620046
79	H	0.344671	0.737605	0.619684
80	H	0.295303	0.678173	0.746735
81	H	0.209579	0.637646	0.748032
82	C	0.045319	0.529557	0.015319
83	C	0.146974	0.579147	0.683414
84	C	0.120249	0.558274	0.723897
85	N	0.071461	0.550035	0.976993
86	C	0.069735	0.533561	0.723521
87	N	0.043507	0.513004	0.761844
88	H	0.137376	0.559812	0.753867
89	C	0.120149	0.574045	0.976497
90	H	0.136807	0.58897	0.946233
91	C	0.420145	0.619566	0.053304
92	C	0.412189	0.611933	0.971175
93	C	0.412051	0.756922	0.046477
94	H	0.416455	0.599773	0.940278
95	H	0.419227	0.739835	0.072036
96	C	0.420145	0.619566	0.386636
97	C	0.412189	0.611933	0.30451
98	C	0.412051	0.756922	0.379808
99	H	0.416455	0.599773	0.273614
100	H	0.419227	0.739835	0.40537
101	C	0.420145	0.619566	0.719968
102	C	0.412189	0.611933	0.637842
103	C	0.412051	0.756922	0.713141
104	H	0.416455	0.599773	0.606946
105	H	0.419227	0.739835	0.738702
106	C	0.429959	0.602501	0.012113
107	C	0.437666	0.807326	0.04543
108	C	0.428985	0.833788	0.01162
109	H	0.432812	0.615694	0.084062
110	H	0.443533	0.552642	0.081235
111	H	0.449202	0.896676	0.273474
112	C	0.429959	0.602501	0.345448
113	C	0.437666	0.807326	0.378764
114	C	0.428985	0.833788	0.344955
115	H	0.432812	0.615694	0.417396
116	H	0.443533	0.552642	0.414569
117	H	0.449202	0.896676	0.606805
118	C	0.429959	0.602501	0.678781
119	C	0.437666	0.807326	0.712097
120	C	0.428985	0.833788	0.678288
121	H	0.432812	0.615694	0.750728
122	H	0.443533	0.552642	0.747902
123	H	0.449202	0.896676	0.940138
124	H	0.463417	0.824244	0.069851
125	N	0.687688	0.346882	0.013143
126	C	0.662025	0.372296	0.012449
127	C	0.662491	0.295947	0.012664
128	C	0.738651	0.372142	0.014767
129	C	0.763475	0.400651	0.052892
130	C	0.814003	0.426899	0.053586
131	C	0.841533	0.425357	0.016381
132	C	0.816058	0.396234	0.978468
133	C	0.765629	0.370471	0.977496
134	C	0.628117	0.365011	0.046632
135	C	0.602503	0.389803	0.045578
136	C	0.611043	0.42478	0.011634
137	C	0.646009	0.432323	0.977962
138	C	0.670306	0.40609	0.977825
139	C	0.646576	0.269868	0.053808
140	C	0.619968	0.21944	0.053391
141	C	0.610051	0.192588	0.012178
142	C	0.627694	0.219779	0.971223
143	C	0.652429	0.270278	0.971278
144	H	0.576881	0.381127	0.070107
145	H	0.621073	0.340877	0.072289
146	H	0.695115	0.412662	0.952869
147	H	0.655103	0.457781	0.953174
148	H	0.744754	0.402953	0.080099
149	H	0.830477	0.448148	0.081368
150	H	0.653431	0.287577	0.084367
151	H	0.607363	0.202868	0.084151
152	H	0.623321	0.203332	0.940319
153	H	0.66355	0.288297	0.940901
154	H	0.748718	0.35056	0.949187
155	H	0.833972	0.393004	0.951042
156	C	0.585447	0.451084	0.344921
157	C	0.578232	0.471014	0.30433
158	N	0.55404	0.495537	0.304736
159	C	0.534469	0.502191	0.343189
160	C	0.539173	0.482469	0.051474
161	C	0.565361	0.458219	0.05213
162	H	0.569788	0.446158	0.083043
163	C	0.508987	0.527323	0.343312
164	C	0.456498	0.577028	0.011932
165	C	0.460519	0.553484	0.05148
166	H	0.590094	0.466651	0.273333
167	N	0.504935	0.549727	0.30572
168	C	0.487242	0.529772	0.051179
169	N	0.49298	0.509229	0.089475
170	N	0.517827	0.487162	0.089691
171	C	0.480603	0.574099	0.305646
172	H	0.481299	0.591007	0.275939
173	C	0.583523	0.140594	0.345321
174	C	0.558998	0.113589	0.305833
175	N	0.534674	0.064886	0.305893
176	C	0.531045	0.038421	0.343353
177	C	0.553242	0.062603	0.051096
178	C	0.579951	0.113039	0.051397
179	H	0.597265	0.129201	0.081029
180	C	0.505564	0.987808	0.343216
181	C	0.454593	0.885705	0.01159
182	C	0.475135	0.912928	0.052045
183	H	0.557996	0.129835	0.276258
184	N	0.485573	0.961589	0.304852
185	C	0.501322	0.963368	0.051389
186	N	0.523094	0.989396	0.089496
187	N	0.547936	0.036311	0.089279
188	H	0.471036	0.896454	0.08291
189	C	0.461372	0.912874	0.304433
190	C	0.893054	0.452181	0.350102
191	C	0.919869	0.4739	0.309845
192	N	0.96856	0.498577	0.310333
193	C	0.994707	0.504249	0.348655
194	C	0.9703	0.483846	0.056862
195	C	0.919788	0.458039	0.05725
196	H	0.902666	0.442455	0.087221
197	H	0.903203	0.472144	0.279581
198	N	0.996535	0.489517	0.095182
199	H	0.463417	0.824244	0.403183
200	N	0.687688	0.346882	0.346478
201	C	0.662025	0.372296	0.34578
202	C	0.662491	0.295947	0.345999
203	C	0.738651	0.372142	0.3481
204	C	0.763475	0.400651	0.386225
205	C	0.814003	0.426899	0.38692
206	C	0.841533	0.425357	0.349712
207	C	0.816058	0.396234	0.311801
208	C	0.765629	0.370471	0.31083
209	C	0.628117	0.365011	0.379966
210	C	0.602503	0.389803	0.378911
211	C	0.611043	0.42478	0.344969
212	C	0.646009	0.432323	0.311296
213	C	0.670306	0.40609	0.31116
214	C	0.646576	0.269868	0.387139
215	C	0.619968	0.21944	0.386725
216	C	0.610051	0.192588	0.345513
217	C	0.627694	0.219779	0.304557
218	C	0.652429	0.270278	0.304612
219	H	0.576881	0.381127	0.403439
220	H	0.621073	0.340877	0.405623
221	H	0.695115	0.412662	0.286204
222	H	0.655103	0.457781	0.286507
223	H	0.744754	0.402953	0.413433
224	H	0.830477	0.448148	0.414702
225	H	0.653431	0.287577	0.4177
226	H	0.607363	0.202868	0.417485
227	H	0.623321	0.203332	0.273652
228	H	0.66355	0.288297	0.274237
229	H	0.748718	0.35056	0.282523
230	H	0.833972	0.393004	0.284377
231	C	0.585447	0.451084	0.678254
232	C	0.578232	0.471014	0.637665
233	N	0.55404	0.495537	0.638068
234	C	0.534469	0.502191	0.676522
235	C	0.539173	0.482469	0.384808
236	C	0.565361	0.458219	0.385462
237	H	0.569788	0.446158	0.416376
238	C	0.508987	0.527323	0.676645
239	C	0.456498	0.577028	0.345266
240	C	0.460519	0.553484	0.384812
241	H	0.590094	0.466651	0.606665
242	N	0.504935	0.549727	0.639054
243	C	0.487242	0.529772	0.38451
244	N	0.49298	0.509229	0.42281
245	N	0.517827	0.487162	0.423022
246	C	0.480603	0.574099	0.638979
247	H	0.481299	0.591007	0.609273
248	C	0.583523	0.140594	0.678654
249	C	0.558998	0.113589	0.639167
250	N	0.534674	0.064886	0.639225
251	C	0.531045	0.038421	0.676686
252	C	0.553242	0.062603	0.384428
253	C	0.579951	0.113039	0.384729
254	H	0.597265	0.129201	0.414364
255	C	0.505564	0.987808	0.676549
256	C	0.454593	0.885705	0.344924
257	C	0.475135	0.912928	0.385376
258	H	0.557996	0.129835	0.609591
259	N	0.485573	0.961589	0.638185
260	C	0.501322	0.963368	0.384723
261	N	0.523094	0.989396	0.42283
262	N	0.547936	0.036311	0.422611
263	H	0.471036	0.896454	0.416242
264	C	0.461372	0.912874	0.637767
265	C	0.893054	0.452181	0.683435
266	C	0.919869	0.4739	0.643178
267	N	0.96856	0.498577	0.643667
268	C	0.994707	0.504249	0.681987
269	C	0.9703	0.483846	0.390195
270	C	0.919788	0.458039	0.390582
271	H	0.902666	0.442455	0.420555
272	H	0.903203	0.472144	0.612914
273	N	0.996535	0.489517	0.428515
274	H	0.463417	0.824244	0.736515
275	N	0.687688	0.346882	0.679811
276	C	0.662025	0.372296	0.679113
277	C	0.662491	0.295947	0.679332
278	C	0.738651	0.372142	0.681433
279	C	0.763475	0.400651	0.719558
280	C	0.814003	0.426899	0.720252
281	C	0.841533	0.425357	0.683045
282	C	0.816058	0.396234	0.645136
283	C	0.765629	0.370471	0.644164
284	C	0.628117	0.365011	0.713298
285	C	0.602503	0.389803	0.712244
286	C	0.611043	0.42478	0.678301
287	C	0.646009	0.432323	0.644629
288	C	0.670306	0.40609	0.644492
289	C	0.646576	0.269868	0.720475
290	C	0.619968	0.21944	0.720057
291	C	0.610051	0.192588	0.678846
292	C	0.627694	0.219779	0.63789
293	C	0.652429	0.270278	0.637945
294	H	0.576881	0.381127	0.736772
295	H	0.621073	0.340877	0.738956
296	H	0.695115	0.412662	0.619536
297	H	0.655103	0.457781	0.619841
298	H	0.744754	0.402953	0.746765
299	H	0.830477	0.448148	0.748035
300	H	0.653431	0.287577	0.751033
301	H	0.607363	0.202868	0.750817
302	H	0.623321	0.203332	0.606987
303	H	0.66355	0.288297	0.607568
304	H	0.748718	0.35056	0.615854
305	H	0.833972	0.393004	0.617709
306	C	0.585447	0.451084	0.011586
307	C	0.578232	0.471014	0.970997
308	N	0.55404	0.495537	0.971401
309	C	0.534469	0.502191	0.009855
310	C	0.539173	0.482469	0.718141
311	C	0.565361	0.458219	0.718795
312	H	0.569788	0.446158	0.749709
313	C	0.508987	0.527323	0.009978
314	C	0.456498	0.577028	0.678599
315	C	0.460519	0.553484	0.718144
316	H	0.590094	0.466651	0.939998
317	N	0.504935	0.549727	0.972387
318	C	0.487242	0.529772	0.717843
319	N	0.49298	0.509229	0.756143
320	N	0.517827	0.487162	0.756355
321	C	0.480603	0.574099	0.972311
322	H	0.481299	0.591007	0.942606
323	C	0.583523	0.140594	0.011987
324	C	0.558998	0.113589	0.9725
325	N	0.534674	0.064886	0.972558
326	C	0.531045	0.038421	0.010019
327	C	0.553242	0.062603	0.717761
328	C	0.579951	0.113039	0.718062
329	H	0.597265	0.129201	0.747696
330	C	0.505564	0.987808	0.009882
331	C	0.454593	0.885705	0.678257
332	C	0.475135	0.912928	0.718709
333	H	0.557996	0.129835	0.942924
334	N	0.485573	0.961589	0.971517
335	C	0.501322	0.963368	0.718055
336	N	0.523094	0.989396	0.756163
337	N	0.547936	0.036311	0.755944
338	H	0.471036	0.896454	0.749575
339	C	0.461372	0.912874	0.9711
340	C	0.893054	0.452181	0.016769
341	C	0.919869	0.4739	0.976511
342	N	0.96856	0.498577	0.977
343	C	0.994707	0.504249	0.015323
344	C	0.9703	0.483846	0.723528
345	C	0.919788	0.458039	0.723914
346	H	0.902666	0.442455	0.753887
347	H	0.903203	0.472144	0.946247
348	N	0.996535	0.489517	0.761848
